Circuit: * C:\Users\Mauricio\Documents\GitHub\Fuente-Conmutada\Simulaciones\LTspice LT1930A\LT1930A.asc

Direct Newton iteration for .op point succeeded.

Date: Thu Apr 11 20:24:58 2024
Total elapsed time: 2.195 seconds.

tnom = 27
temp = 27
method = modified trap
totiter = 444956
traniter = 444949
tranpoints = 127956
accept = 91789
rejected = 36167
matrix size = 20
fillins = 0
solver = Normal
Avg thread counts: 1.0/1.0/1.0/1.0
Matrix Compiler1: 612 bytes object code size  0.4/0.5/[0.2]
Matrix Compiler2: 1.09 KB object code size  0.3/0.4/[0.2]

