Circuit: * D:\gitHub\Fuente-Conmutada\Simulaciones\LTspice LT1930A\LT1930A.asc

Direct Newton iteration for .op point succeeded.

Date: Fri Apr 19 19:51:45 2024
Total elapsed time: 3.322 seconds.

tnom = 27
temp = 27
method = trap
totiter = 1528492
traniter = 1528484
tranpoints = 428983
accept = 307178
rejected = 121805
matrix size = 21
fillins = 1
solver = Normal
Avg thread counts: 1.0/1.0/1.0/1.0
Matrix Compiler1: 680 bytes object code size  0.2/0.2/[0.2]
Matrix Compiler2: 1.18 KB object code size  0.2/0.2/[0.1]

