LTspice 24.0.12 for Windows
Circuit: * D:\gitHub\Fuente-Conmutada\Simulaciones\LTSpice LMR64010\TI_LMR64010.asc
Start Time: Mon May 13 21:18:38 2024
solver = Normal
Maximum thread count: 16
tnom = 27
temp = 27
method = trap
trtol = 1
Instance "m:u1:driver:1": Width narrower than recommended for a level 3 MOSFET.
U1:icl:v1: Missing value, assumed 0V @ DC
U1:cccs:v1: Missing value, assumed 0V @ DC
U1:visn: Missing value, assumed 0V @ DC
Direct Newton iteration for .op point succeeded.
Ignoring empty pin current: Ix(u1:en)
Ignoring empty pin current: Ix(u1:fb)
Ignoring empty pin current: Ix(u1:en)
Ignoring empty pin current: Ix(u1:fb)
Heightened Def Con from 5e-10 to 6.95313e-10
Heightened Def Con from 2.65e-08 to 2.65703e-08
Heightened Def Con from 6.255e-07 to 6.2557e-07
Heightened Def Con from 6.515e-07 to 6.5175e-07
Heightened Def Con from 1.2505e-06 to 1.25057e-06
Heightened Def Con from 1.8755e-06 to 1.87557e-06
Heightened Def Con from 2.5005e-06 to 2.50057e-06
Heightened Def Con from 3.1255e-06 to 3.12557e-06
Heightened Def Con from 3.7505e-06 to 3.75057e-06
Heightened Def Con from 3.7765e-06 to 3.77657e-06
Heightened Def Con from 4.3755e-06 to 4.37557e-06
Heightened Def Con from 4.4015e-06 to 4.4022e-06
Heightened Def Con from 5.0005e-06 to 5.00064e-06
Heightened Def Con from 5.6255e-06 to 5.62564e-06
Heightened Def Con from 5.6515e-06 to 5.6635e-06
Heightened Def Con from 6.2505e-06 to 6.25064e-06
Heightened Def Con from 6.2765e-06 to 6.2885e-06
Heightened Def Con from 6.8755e-06 to 6.87564e-06
Heightened Def Con from 6.9015e-06 to 6.9135e-06
Heightened Def Con from 7.5005e-06 to 7.50064e-06
Heightened Def Con from 7.5265e-06 to 7.5385e-06
Heightened Def Con from 8.7505e-06 to 8.75064e-06
Heightened Def Con from 9.3755e-06 to 9.37564e-06
Heightened Def Con from 1.00005e-05 to 1.00006e-05
Heightened Def Con from 1.06255e-05 to 1.06256e-05
Heightened Def Con from 1.12505e-05 to 1.12506e-05
Heightened Def Con from 1.18755e-05 to 1.18756e-05
Heightened Def Con from 1.31255e-05 to 1.31256e-05
Heightened Def Con from 1.37505e-05 to 1.37506e-05
Heightened Def Con from 1.37765e-05 to 1.37766e-05
Heightened Def Con from 1.43755e-05 to 1.43756e-05
Heightened Def Con from 1.44015e-05 to 1.44016e-05
Heightened Def Con from 1.50005e-05 to 1.50006e-05
Heightened Def Con from 1.56255e-05 to 1.56256e-05
Heightened Def Con from 1.62505e-05 to 1.62506e-05
Heightened Def Con from 1.62765e-05 to 1.62766e-05
Heightened Def Con from 1.68755e-05 to 1.68756e-05
Heightened Def Con from 1.69015e-05 to 1.69016e-05
Heightened Def Con from 1.81255e-05 to 1.81256e-05
Heightened Def Con from 1.87505e-05 to 1.87506e-05
Heightened Def Con from 1.87765e-05 to 1.87885e-05
Heightened Def Con from 1.93755e-05 to 1.93756e-05
Heightened Def Con from 2.00005e-05 to 2.00006e-05
Heightened Def Con from 2.06255e-05 to 2.06256e-05
Heightened Def Con from 2.18755e-05 to 2.18756e-05
Heightened Def Con from 2.19015e-05 to 2.19016e-05
Heightened Def Con from 2.25005e-05 to 2.25006e-05
Heightened Def Con from 2.37505e-05 to 2.37506e-05
Heightened Def Con from 2.43755e-05 to 2.43756e-05
Heightened Def Con from 2.50005e-05 to 2.50006e-05
Heightened Def Con from 2.56255e-05 to 2.56256e-05
Heightened Def Con from 2.93755e-05 to 2.93756e-05
Heightened Def Con from 3.00005e-05 to 3.00006e-05
Heightened Def Con from 3.00265e-05 to 3.00266e-05
Heightened Def Con from 3.06255e-05 to 3.06256e-05
Heightened Def Con from 3.06515e-05 to 3.06635e-05
Heightened Def Con from 3.12505e-05 to 3.12506e-05
Heightened Def Con from 3.12765e-05 to 3.12766e-05
Heightened Def Con from 3.18755e-05 to 3.18756e-05
Heightened Def Con from 3.25005e-05 to 3.25006e-05
Heightened Def Con from 3.43755e-05 to 3.43756e-05
Heightened Def Con from 3.50005e-05 to 3.50006e-05
Heightened Def Con from 3.50265e-05 to 3.50266e-05
Heightened Def Con from 3.56255e-05 to 3.56256e-05
Heightened Def Con from 3.56515e-05 to 3.56516e-05
Heightened Def Con from 3.62505e-05 to 3.62506e-05
Heightened Def Con from 3.69015e-05 to 3.69135e-05
Heightened Def Con from 3.75005e-05 to 3.75006e-05
Heightened Def Con from 3.75265e-05 to 3.75266e-05
Heightened Def Con from 3.87505e-05 to 3.87506e-05
Heightened Def Con from 3.93755e-05 to 3.93756e-05
Heightened Def Con from 4.06255e-05 to 4.06256e-05
Heightened Def Con from 4.12505e-05 to 4.12506e-05
Heightened Def Con from 4.18755e-05 to 4.18756e-05
Heightened Def Con from 4.19015e-05 to 4.19135e-05
Heightened Def Con from 4.25005e-05 to 4.25006e-05
Heightened Def Con from 4.31255e-05 to 4.31256e-05
Heightened Def Con from 4.50005e-05 to 4.50006e-05
Heightened Def Con from 4.56255e-05 to 4.56256e-05
Heightened Def Con from 4.56515e-05 to 4.56516e-05
Heightened Def Con from 4.62505e-05 to 4.62506e-05
Heightened Def Con from 4.75005e-05 to 4.75006e-05
Heightened Def Con from 4.81255e-05 to 4.81256e-05
Heightened Def Con from 4.87505e-05 to 4.87506e-05
Heightened Def Con from 4.93755e-05 to 4.93756e-05
Heightened Def Con from 5.00005e-05 to 5.00006e-05
Heightened Def Con from 5.06255e-05 to 5.06256e-05
Heightened Def Con from 5.12505e-05 to 5.12506e-05
Heightened Def Con from 5.12765e-05 to 5.12766e-05
Heightened Def Con from 5.18755e-05 to 5.18756e-05
Heightened Def Con from 5.19015e-05 to 5.19016e-05
Heightened Def Con from 5.31255e-05 to 5.31256e-05
Heightened Def Con from 5.37505e-05 to 5.37506e-05
Heightened Def Con from 5.43755e-05 to 5.43756e-05
Heightened Def Con from 5.50005e-05 to 5.50006e-05
Heightened Def Con from 5.50265e-05 to 5.50266e-05
Heightened Def Con from 5.56255e-05 to 5.56256e-05
Heightened Def Con from 5.62505e-05 to 5.62506e-05
Heightened Def Con from 5.68755e-05 to 5.68756e-05
Heightened Def Con from 5.75005e-05 to 5.75006e-05
Heightened Def Con from 5.81255e-05 to 5.81256e-05
Heightened Def Con from 5.93755e-05 to 5.93756e-05
Heightened Def Con from 6.06255e-05 to 6.06256e-05
Heightened Def Con from 6.25005e-05 to 6.25006e-05
Heightened Def Con from 6.31255e-05 to 6.31256e-05
Heightened Def Con from 6.37505e-05 to 6.37506e-05
Heightened Def Con from 6.43755e-05 to 6.43756e-05
Heightened Def Con from 6.50005e-05 to 6.50006e-05
Heightened Def Con from 6.50265e-05 to 6.50385e-05
Heightened Def Con from 6.56255e-05 to 6.56256e-05
Heightened Def Con from 6.56515e-05 to 6.56635e-05
Heightened Def Con from 6.62505e-05 to 6.62506e-05
Heightened Def Con from 6.68755e-05 to 6.68756e-05
Heightened Def Con from 6.75005e-05 to 6.75006e-05
Heightened Def Con from 6.75265e-05 to 6.75266e-05
Heightened Def Con from 6.81255e-05 to 6.81256e-05
Heightened Def Con from 6.81515e-05 to 6.81516e-05
Heightened Def Con from 6.87505e-05 to 6.87506e-05
Heightened Def Con from 6.93755e-05 to 6.93756e-05
Heightened Def Con from 7.00005e-05 to 7.00006e-05
Heightened Def Con from 7.06255e-05 to 7.06256e-05
Heightened Def Con from 7.06515e-05 to 7.06516e-05
Heightened Def Con from 7.12505e-05 to 7.12506e-05
Heightened Def Con from 7.18755e-05 to 7.18756e-05
Heightened Def Con from 7.25005e-05 to 7.25006e-05
Heightened Def Con from 7.25265e-05 to 7.25266e-05
Heightened Def Con from 7.31255e-05 to 7.31256e-05
Heightened Def Con from 7.31515e-05 to 7.31516e-05
Heightened Def Con from 7.37505e-05 to 7.37506e-05
Heightened Def Con from 7.37765e-05 to 7.37885e-05
Heightened Def Con from 7.43755e-05 to 7.43756e-05
Heightened Def Con from 7.50005e-05 to 7.50006e-05
Heightened Def Con from 7.50265e-05 to 7.50385e-05
Heightened Def Con from 7.56255e-05 to 7.56256e-05
Heightened Def Con from 7.56515e-05 to 7.56635e-05
Heightened Def Con from 7.68755e-05 to 7.68756e-05
Heightened Def Con from 7.75005e-05 to 7.75006e-05
Heightened Def Con from 7.75265e-05 to 7.75385e-05
Heightened Def Con from 7.81255e-05 to 7.81256e-05
Heightened Def Con from 7.81515e-05 to 7.81516e-05
Heightened Def Con from 7.87505e-05 to 7.87506e-05
Heightened Def Con from 7.93755e-05 to 7.93756e-05
Heightened Def Con from 8.00005e-05 to 8.00006e-05
Heightened Def Con from 8.12765e-05 to 8.12885e-05
Heightened Def Con from 8.18755e-05 to 8.18756e-05
Heightened Def Con from 8.25005e-05 to 8.25006e-05
Heightened Def Con from 8.31255e-05 to 8.31256e-05
Heightened Def Con from 8.37765e-05 to 8.37885e-05
Heightened Def Con from 8.50005e-05 to 8.50006e-05
Heightened Def Con from 8.56255e-05 to 8.56256e-05
Heightened Def Con from 8.62505e-05 to 8.62506e-05
Heightened Def Con from 8.81515e-05 to 8.81635e-05
Heightened Def Con from 8.87505e-05 to 8.87506e-05
Heightened Def Con from 9.00005e-05 to 9.00006e-05
Heightened Def Con from 9.06255e-05 to 9.06256e-05
Heightened Def Con from 9.12505e-05 to 9.12506e-05
Heightened Def Con from 9.18755e-05 to 9.18756e-05
Heightened Def Con from 9.31255e-05 to 9.31256e-05
Heightened Def Con from 9.37505e-05 to 9.37506e-05
Heightened Def Con from 9.44015e-05 to 9.44135e-05
Heightened Def Con from 9.56255e-05 to 9.56256e-05
Heightened Def Con from 9.62505e-05 to 9.62506e-05
Heightened Def Con from 9.68755e-05 to 9.68756e-05
Heightened Def Con from 9.75005e-05 to 9.75006e-05
Heightened Def Con from 9.81255e-05 to 9.81256e-05
Heightened Def Con from 9.81515e-05 to 9.81516e-05
Heightened Def Con from 9.87505e-05 to 9.87506e-05
Heightened Def Con from 9.93755e-05 to 9.93756e-05
Heightened Def Con from 9.94015e-05 to 9.94016e-05
Heightened Def Con from 0.0001 to 0.000100001
Heightened Def Con from 0.0001025 to 0.000102501
Heightened Def Con from 0.000103751 to 0.000103751
Heightened Def Con from 0.000103776 to 0.000103777
Heightened Def Con from 0.000104376 to 0.000104376
Heightened Def Con from 0.000105626 to 0.000105626
Heightened Def Con from 0.00010625 to 0.000106251
Heightened Def Con from 0.000106875 to 0.000106876
Heightened Def Con from 0.0001075 to 0.000107501
Heightened Def Con from 0.000108126 to 0.000108126
Heightened Def Con from 0.000108151 to 0.000108152
Heightened Def Con from 0.000109376 to 0.000109376
Heightened Def Con from 0.000109401 to 0.000109402
Heightened Def Con from 0.000110625 to 0.000110626
Heightened Def Con from 0.000111902 to 0.000111904
Heightened Def Con from 0.0001125 to 0.000112501
Heightened Def Con from 0.000112527 to 0.000112539
Heightened Def Con from 0.00011375 to 0.000113751
Heightened Def Con from 0.000114375 to 0.000114376
Heightened Def Con from 0.000116251 to 0.000116251
Heightened Def Con from 0.000116277 to 0.000116289
Heightened Def Con from 0.000116875 to 0.000116876
Heightened Def Con from 0.000118125 to 0.000118126
Heightened Def Con from 0.000118751 to 0.000118751
Heightened Def Con from 0.000118776 to 0.000118777
Heightened Def Con from 0.000120001 to 0.000120001
Heightened Def Con from 0.000120026 to 0.000120027
Heightened Def Con from 0.000120625 to 0.000120626
Heightened Def Con from 0.00012125 to 0.000121251
Heightened Def Con from 0.000123125 to 0.000123126
Heightened Def Con from 0.000123152 to 0.000123164
Heightened Def Con from 0.00012375 to 0.000123751
Heightened Def Con from 0.000124375 to 0.000124376
Heightened Def Con from 0.000126875 to 0.000126876
Heightened Def Con from 0.000128125 to 0.000128126
Heightened Def Con from 0.000129376 to 0.000129376
Heightened Def Con from 0.000130001 to 0.000130001
Heightened Def Con from 0.000130027 to 0.000130039
Heightened Def Con from 0.000131251 to 0.000131251
Heightened Def Con from 0.000131876 to 0.000131876
Heightened Def Con from 0.000131901 to 0.000131902
Heightened Def Con from 0.000132501 to 0.000132501
Heightened Def Con from 0.000132526 to 0.000132527
Heightened Def Con from 0.000133126 to 0.000133126
Heightened Def Con from 0.000133151 to 0.000133152
Heightened Def Con from 0.00013375 to 0.000133751
Heightened Def Con from 0.000134375 to 0.000134376
Heightened Def Con from 0.000135625 to 0.000135626
Heightened Def Con from 0.00013625 to 0.000136251
Heightened Def Con from 0.000136876 to 0.000136876
Heightened Def Con from 0.000137501 to 0.000137501
Heightened Def Con from 0.000137526 to 0.000137527
Heightened Def Con from 0.00013875 to 0.000138751
Heightened Def Con from 0.000139376 to 0.000139376
Heightened Def Con from 0.000140626 to 0.000140626
Heightened Def Con from 0.000140651 to 0.000140652
Heightened Def Con from 0.000141876 to 0.000141876
Heightened Def Con from 0.0001425 to 0.000142501
Heightened Def Con from 0.000143125 to 0.000143126
Heightened Def Con from 0.00014375 to 0.000143751
Heightened Def Con from 0.000145001 to 0.000145001
Heightened Def Con from 0.000145027 to 0.000145039
Heightened Def Con from 0.000145625 to 0.000145626
Heightened Def Con from 0.00014625 to 0.000146251
Heightened Def Con from 0.000146875 to 0.000146876
Heightened Def Con from 0.000147501 to 0.000147501
Heightened Def Con from 0.000147526 to 0.000147527
Heightened Def Con from 0.000148126 to 0.000148126
Heightened Def Con from 0.000148151 to 0.000148152
Heightened Def Con from 0.000149375 to 0.000149376
Heightened Def Con from 0.00015 to 0.000150001
Heightened Def Con from 0.000150626 to 0.000150626
Heightened Def Con from 0.00015125 to 0.000151251
Heightened Def Con from 0.000151875 to 0.000151876
Heightened Def Con from 0.000152501 to 0.000152501
Heightened Def Con from 0.000153125 to 0.000153126
Heightened Def Con from 0.00015375 to 0.000153751
Heightened Def Con from 0.000155001 to 0.000155001
Heightened Def Con from 0.000155026 to 0.000155027
Heightened Def Con from 0.000155625 to 0.000155626
Heightened Def Con from 0.000156251 to 0.000156251
Heightened Def Con from 0.000156276 to 0.000156277
Heightened Def Con from 0.000157501 to 0.000157501
Heightened Def Con from 0.00015875 to 0.000158751
Heightened Def Con from 0.000159375 to 0.000159376
Heightened Def Con from 0.000160027 to 0.000160039
Heightened Def Con from 0.0001625 to 0.000162501
Heightened Def Con from 0.000163126 to 0.000163126
Heightened Def Con from 0.000163751 to 0.000163751
Heightened Def Con from 0.000164375 to 0.000164376
Heightened Def Con from 0.000165 to 0.000165001
Heightened Def Con from 0.000165027 to 0.000165039
Heightened Def Con from 0.000165625 to 0.000165626
Heightened Def Con from 0.000166875 to 0.000166876
Heightened Def Con from 0.0001675 to 0.000167501
Heightened Def Con from 0.000168125 to 0.000168126
Heightened Def Con from 0.000169376 to 0.000169376
Heightened Def Con from 0.000170625 to 0.000170626
Heightened Def Con from 0.00017125 to 0.000171251
Heightened Def Con from 0.000171875 to 0.000171876
Heightened Def Con from 0.000173126 to 0.000173126
Heightened Def Con from 0.000173151 to 0.000173152
Heightened Def Con from 0.000175 to 0.000175001
Heightened Def Con from 0.000175625 to 0.000175626
Heightened Def Con from 0.000176251 to 0.000176251
Heightened Def Con from 0.000176276 to 0.000176277
Heightened Def Con from 0.000176875 to 0.000176876
Heightened Def Con from 0.0001775 to 0.000177501
Heightened Def Con from 0.000178125 to 0.000178126
Heightened Def Con from 0.000179376 to 0.000179376
Heightened Def Con from 0.000179401 to 0.000179402
Heightened Def Con from 0.000180001 to 0.000180001
Heightened Def Con from 0.000180026 to 0.000180027
Heightened Def Con from 0.000180626 to 0.000180626
Heightened Def Con from 0.000180651 to 0.000180652
Heightened Def Con from 0.00018125 to 0.000181251
Heightened Def Con from 0.000181876 to 0.000181876
Heightened Def Con from 0.000181901 to 0.000181902
Heightened Def Con from 0.000182527 to 0.000182539
Heightened Def Con from 0.000183125 to 0.000183126
Heightened Def Con from 0.00018375 to 0.000183751
Heightened Def Con from 0.000185001 to 0.000185001
Heightened Def Con from 0.000185026 to 0.000185027
Heightened Def Con from 0.000185626 to 0.000185626
Heightened Def Con from 0.000185651 to 0.000185652
Heightened Def Con from 0.000186277 to 0.000186289
Heightened Def Con from 0.000186875 to 0.000186876
Heightened Def Con from 0.0001875 to 0.000187501
Heightened Def Con from 0.00018875 to 0.000188751
Heightened Def Con from 0.000189375 to 0.000189376
Heightened Def Con from 0.000189402 to 0.000189414
Heightened Def Con from 0.000190027 to 0.000190039
Heightened Def Con from 0.000190625 to 0.000190626
Heightened Def Con from 0.000190652 to 0.000190664
Heightened Def Con from 0.000191251 to 0.000191251
Heightened Def Con from 0.000191276 to 0.000191277
Heightened Def Con from 0.000191875 to 0.000191876
Heightened Def Con from 0.000193125 to 0.000193126
Heightened Def Con from 0.00019375 to 0.000193751
Heightened Def Con from 0.000195 to 0.000195001
Heightened Def Con from 0.000195625 to 0.000195626
Heightened Def Con from 0.00019625 to 0.000196251
Heightened Def Con from 0.0001975 to 0.000197501
Heightened Def Con from 0.000197527 to 0.000197539
Heightened Def Con from 0.000198126 to 0.000198126
Heightened Def Con from 0.000198151 to 0.000198152
Heightened Def Con from 0.000199375 to 0.000199376
Heightened Def Con from 0.000200626 to 0.000200626
Heightened Def Con from 0.000200651 to 0.000200652
Heightened Def Con from 0.000201251 to 0.000201251
Heightened Def Con from 0.000201875 to 0.000201876
Heightened Def Con from 0.000203751 to 0.000203751
Heightened Def Con from 0.000204375 to 0.000204376
Heightened Def Con from 0.000205 to 0.000205001
Heightened Def Con from 0.000205626 to 0.000205626
Heightened Def Con from 0.00020625 to 0.000206251
Heightened Def Con from 0.000206876 to 0.000206876
Heightened Def Con from 0.000206901 to 0.000206902
Heightened Def Con from 0.000208126 to 0.000208126
Heightened Def Con from 0.000208751 to 0.000208751
Heightened Def Con from 0.000210001 to 0.000210001
Heightened Def Con from 0.000210626 to 0.000210626
Heightened Def Con from 0.000211251 to 0.000211251
Heightened Def Con from 0.000211276 to 0.000211277
Heightened Def Con from 0.000211875 to 0.000211876
Heightened Def Con from 0.000212501 to 0.000212501
Heightened Def Con from 0.000213126 to 0.000213126
Heightened Def Con from 0.000213751 to 0.000213751
Heightened Def Con from 0.000213776 to 0.000213777
Heightened Def Con from 0.000214375 to 0.000214376
Heightened Def Con from 0.000215 to 0.000215001
Heightened Def Con from 0.000215625 to 0.000215626
Heightened Def Con from 0.00021625 to 0.000216251
Heightened Def Con from 0.000216875 to 0.000216876
Heightened Def Con from 0.0002175 to 0.000217501
Heightened Def Con from 0.000218125 to 0.000218126
Heightened Def Con from 0.00022 to 0.000220001
Heightened Def Con from 0.000220625 to 0.000220626
Heightened Def Con from 0.000221251 to 0.000221251
Heightened Def Con from 0.000221276 to 0.000221277
Heightened Def Con from 0.000221875 to 0.000221876
Heightened Def Con from 0.000221902 to 0.000221914
Heightened Def Con from 0.0002225 to 0.000222501
Heightened Def Con from 0.000223125 to 0.000223126
Heightened Def Con from 0.000223152 to 0.000223164
Heightened Def Con from 0.000225001 to 0.000225001
Heightened Def Con from 0.000225026 to 0.000225027
Heightened Def Con from 0.000225625 to 0.000225626
Heightened Def Con from 0.000225652 to 0.000225664
Heightened Def Con from 0.00022625 to 0.000226251
Heightened Def Con from 0.000226875 to 0.000226876
Heightened Def Con from 0.000228126 to 0.000228126
Heightened Def Con from 0.000228751 to 0.000228751
Heightened Def Con from 0.000228776 to 0.000228777
Heightened Def Con from 0.000230001 to 0.000230001
Heightened Def Con from 0.000230026 to 0.000230027
Heightened Def Con from 0.000230625 to 0.000230626
Heightened Def Con from 0.00023125 to 0.000231251
Heightened Def Con from 0.000231876 to 0.000231876
Heightened Def Con from 0.0002325 to 0.000232501
Heightened Def Con from 0.000233125 to 0.000233126
Heightened Def Con from 0.000234376 to 0.000234376
Heightened Def Con from 0.000234401 to 0.000234402
Heightened Def Con from 0.000235 to 0.000235001
Heightened Def Con from 0.000235626 to 0.000235626
Heightened Def Con from 0.000235652 to 0.000235664
Heightened Def Con from 0.000236251 to 0.000236251
Heightened Def Con from 0.000236876 to 0.000236876
Heightened Def Con from 0.000236902 to 0.000236904
Heightened Def Con from 0.0002375 to 0.000237501
Heightened Def Con from 0.000238126 to 0.000238126
Heightened Def Con from 0.000240001 to 0.000240001
Heightened Def Con from 0.000240027 to 0.000240029
Heightened Def Con from 0.000240625 to 0.000240626
Heightened Def Con from 0.000241251 to 0.000241251
Heightened Def Con from 0.000241277 to 0.000241289
Heightened Def Con from 0.000241875 to 0.000241876
Heightened Def Con from 0.0002425 to 0.000242501
Heightened Def Con from 0.000243125 to 0.000243126
Heightened Def Con from 0.000244375 to 0.000244376
Heightened Def Con from 0.000245 to 0.000245001
Heightened Def Con from 0.000246875 to 0.000246876
Heightened Def Con from 0.000247501 to 0.000247501
Heightened Def Con from 0.000247526 to 0.000247527
Heightened Def Con from 0.000248126 to 0.000248126
Heightened Def Con from 0.000248751 to 0.000248751
Heightened Def Con from 0.000248776 to 0.000248777
Heightened Def Con from 0.000249375 to 0.000249376
Heightened Def Con from 0.000250001 to 0.000250001
Heightened Def Con from 0.000250026 to 0.000250027
Heightened Def Con from 0.000250625 to 0.000250626
Heightened Def Con from 0.00025125 to 0.000251251
Heightened Def Con from 0.000251875 to 0.000251876
Heightened Def Con from 0.0002525 to 0.000252501
Heightened Def Con from 0.000253125 to 0.000253126
Heightened Def Con from 0.000253751 to 0.000253751
Heightened Def Con from 0.000253776 to 0.000253777
Heightened Def Con from 0.000255 to 0.000255001
Heightened Def Con from 0.000256251 to 0.000256251
Heightened Def Con from 0.000256276 to 0.000256277
Heightened Def Con from 0.000256876 to 0.000256876
Heightened Def Con from 0.000256901 to 0.000256902
Heightened Def Con from 0.0002575 to 0.000257501
Heightened Def Con from 0.000258126 to 0.000258126
Heightened Def Con from 0.000258151 to 0.000258152
Heightened Def Con from 0.00025875 to 0.000258751
Heightened Def Con from 0.000260001 to 0.000260001
Heightened Def Con from 0.000260625 to 0.000260626
Heightened Def Con from 0.000261875 to 0.000261876
Heightened Def Con from 0.0002625 to 0.000262501
Heightened Def Con from 0.000263125 to 0.000263126
Heightened Def Con from 0.000263751 to 0.000263751
Heightened Def Con from 0.000263777 to 0.000263789
Heightened Def Con from 0.000264376 to 0.000264376
Heightened Def Con from 0.000265 to 0.000265001
Heightened Def Con from 0.000265625 to 0.000265626
Heightened Def Con from 0.00026625 to 0.000266251
Heightened Def Con from 0.000266876 to 0.000266876
Heightened Def Con from 0.000266901 to 0.000266902
Heightened Def Con from 0.000268125 to 0.000268126
Heightened Def Con from 0.000268751 to 0.000268751
Heightened Def Con from 0.000270001 to 0.000270001
Heightened Def Con from 0.000270026 to 0.000270027
Heightened Def Con from 0.000270625 to 0.000270626
Heightened Def Con from 0.00027125 to 0.000271251
Heightened Def Con from 0.000271875 to 0.000271876
Heightened Def Con from 0.000273126 to 0.000273126
Heightened Def Con from 0.000273151 to 0.000273152
Heightened Def Con from 0.00027375 to 0.000273751
Heightened Def Con from 0.000274376 to 0.000274376
Heightened Def Con from 0.000274401 to 0.000274402
Heightened Def Con from 0.000275001 to 0.000275001
Heightened Def Con from 0.000275026 to 0.000275027
Heightened Def Con from 0.000275625 to 0.000275626
Heightened Def Con from 0.000276251 to 0.000276251
Heightened Def Con from 0.000276875 to 0.000276876
Heightened Def Con from 0.0002775 to 0.000277501
Heightened Def Con from 0.000278125 to 0.000278126
Heightened Def Con from 0.000279376 to 0.000279376
Heightened Def Con from 0.00028 to 0.000280001
Heightened Def Con from 0.00028125 to 0.000281251
Heightened Def Con from 0.000281876 to 0.000281876
Heightened Def Con from 0.0002825 to 0.000282501
Heightened Def Con from 0.000283126 to 0.000283126
Heightened Def Con from 0.000283151 to 0.000283152
Heightened Def Con from 0.000283751 to 0.000283751
Heightened Def Con from 0.000283776 to 0.000283777
Heightened Def Con from 0.000284375 to 0.000284376
Heightened Def Con from 0.000285001 to 0.000285001
Heightened Def Con from 0.000285026 to 0.000285027
Heightened Def Con from 0.000285626 to 0.000285626
Heightened Def Con from 0.000285652 to 0.000285654
Heightened Def Con from 0.00028625 to 0.000286251
Heightened Def Con from 0.000286875 to 0.000286876
Heightened Def Con from 0.000287501 to 0.000287501
Heightened Def Con from 0.000287526 to 0.000287527
Heightened Def Con from 0.000288126 to 0.000288126
Heightened Def Con from 0.000288151 to 0.000288152
Heightened Def Con from 0.000288751 to 0.000288751
Heightened Def Con from 0.000288776 to 0.000288777
Heightened Def Con from 0.000289376 to 0.000289376
Heightened Def Con from 0.000289401 to 0.000289402
Heightened Def Con from 0.00029 to 0.000290001
Heightened Def Con from 0.000290027 to 0.000290039
Heightened Def Con from 0.000290625 to 0.000290626
Heightened Def Con from 0.000291251 to 0.000291251
Heightened Def Con from 0.000291875 to 0.000291876
Heightened Def Con from 0.0002925 to 0.000292501
Heightened Def Con from 0.000293125 to 0.000293126
Heightened Def Con from 0.00029375 to 0.000293751
Heightened Def Con from 0.000295 to 0.000295001
Heightened Def Con from 0.00029625 to 0.000296251
Heightened Def Con from 0.000296875 to 0.000296876
Heightened Def Con from 0.00029875 to 0.000298751
Heightened Def Con from 0.0003 to 0.000300001
Heightened Def Con from 0.00030125 to 0.000301251
Heightened Def Con from 0.000301875 to 0.000301876
Heightened Def Con from 0.0003025 to 0.000302501
Heightened Def Con from 0.000303126 to 0.000303126
Heightened Def Con from 0.000303151 to 0.000303152
Heightened Def Con from 0.00030375 to 0.000303751
Heightened Def Con from 0.000304376 to 0.000304376
Heightened Def Con from 0.000304401 to 0.000304402
Heightened Def Con from 0.000305625 to 0.000305626
Heightened Def Con from 0.00030625 to 0.000306251
Heightened Def Con from 0.000306875 to 0.000306876
Heightened Def Con from 0.00030875 to 0.000308751
Heightened Def Con from 0.000309376 to 0.000309376
Heightened Def Con from 0.000309401 to 0.000309402
Heightened Def Con from 0.00031 to 0.000310001
Heightened Def Con from 0.000310626 to 0.000310626
Heightened Def Con from 0.000311251 to 0.000311251
Heightened Def Con from 0.000311277 to 0.000311279
Heightened Def Con from 0.000311875 to 0.000311876
Heightened Def Con from 0.000312501 to 0.000312501
Heightened Def Con from 0.000313125 to 0.000313126
Heightened Def Con from 0.000313777 to 0.000313789
Heightened Def Con from 0.000314375 to 0.000314376
Heightened Def Con from 0.000315 to 0.000315001
Heightened Def Con from 0.000315625 to 0.000315626
Heightened Def Con from 0.00031625 to 0.000316251
Heightened Def Con from 0.000317501 to 0.000317501
Heightened Def Con from 0.000317527 to 0.000317539
Heightened Def Con from 0.000318126 to 0.000318126
Heightened Def Con from 0.000318151 to 0.000318152
Heightened Def Con from 0.000319375 to 0.000319376
Heightened Def Con from 0.000321251 to 0.000321251
Heightened Def Con from 0.000321276 to 0.000321277
Heightened Def Con from 0.000321876 to 0.000321876
Heightened Def Con from 0.000321901 to 0.000321902
Heightened Def Con from 0.0003225 to 0.000322501
Heightened Def Con from 0.00032375 to 0.000323751
Heightened Def Con from 0.000324376 to 0.000324376
Heightened Def Con from 0.000326876 to 0.000326876
Heightened Def Con from 0.000326901 to 0.000326902
Heightened Def Con from 0.0003275 to 0.000327501
Heightened Def Con from 0.000328125 to 0.000328126
Heightened Def Con from 0.000328751 to 0.000328751
Heightened Def Con from 0.000328776 to 0.000328777
Heightened Def Con from 0.000329376 to 0.000329376
Heightened Def Con from 0.000329401 to 0.000329402
Heightened Def Con from 0.00033 to 0.000330001
Heightened Def Con from 0.000330625 to 0.000330626
Heightened Def Con from 0.000331251 to 0.000331251
Heightened Def Con from 0.000331276 to 0.000331277
Heightened Def Con from 0.000332501 to 0.000332501
Heightened Def Con from 0.000332526 to 0.000332527
Heightened Def Con from 0.000333125 to 0.000333126
Heightened Def Con from 0.00033375 to 0.000333751
Heightened Def Con from 0.000334402 to 0.000334414
Heightened Def Con from 0.000335 to 0.000335001
Heightened Def Con from 0.000335625 to 0.000335626
Heightened Def Con from 0.000336251 to 0.000336251
Heightened Def Con from 0.000336875 to 0.000336876
Heightened Def Con from 0.000338126 to 0.000338126
Heightened Def Con from 0.000338151 to 0.000338152
Heightened Def Con from 0.00033875 to 0.000338751
Heightened Def Con from 0.000339375 to 0.000339376
Heightened Def Con from 0.00034 to 0.000340001
Heightened Def Con from 0.000340027 to 0.000340039
Heightened Def Con from 0.000340625 to 0.000340626
Heightened Def Con from 0.000341876 to 0.000341876
Heightened Def Con from 0.000341901 to 0.000341902
Heightened Def Con from 0.0003425 to 0.000342501
Heightened Def Con from 0.000343126 to 0.000343126
Heightened Def Con from 0.000343151 to 0.000343152
Heightened Def Con from 0.000343751 to 0.000343751
Heightened Def Con from 0.000343777 to 0.000343789
Heightened Def Con from 0.000345 to 0.000345001
Heightened Def Con from 0.000345625 to 0.000345626
Heightened Def Con from 0.0003475 to 0.000347501
Heightened Def Con from 0.000348125 to 0.000348126
Heightened Def Con from 0.00034875 to 0.000348751
Heightened Def Con from 0.000348777 to 0.000348789
Heightened Def Con from 0.00035 to 0.000350001
Heightened Def Con from 0.000351251 to 0.000351251
Heightened Def Con from 0.000351277 to 0.000351289
Heightened Def Con from 0.000351875 to 0.000351876
Heightened Def Con from 0.0003525 to 0.000352501
Heightened Def Con from 0.000353125 to 0.000353126
Heightened Def Con from 0.00035375 to 0.000353751
Heightened Def Con from 0.000354375 to 0.000354376
Heightened Def Con from 0.000355625 to 0.000355626
Heightened Def Con from 0.000356876 to 0.000356876
Heightened Def Con from 0.000356901 to 0.000356902
Heightened Def Con from 0.0003575 to 0.000357501
Heightened Def Con from 0.000358125 to 0.000358126
Heightened Def Con from 0.00035875 to 0.000358751
Heightened Def Con from 0.00036 to 0.000360001
Heightened Def Con from 0.000360625 to 0.000360626
Heightened Def Con from 0.000361875 to 0.000361876
Heightened Def Con from 0.000361902 to 0.000361914
Heightened Def Con from 0.000362501 to 0.000362501
Heightened Def Con from 0.000362527 to 0.000362539
Heightened Def Con from 0.000363126 to 0.000363126
Heightened Def Con from 0.000363151 to 0.000363152
Heightened Def Con from 0.000363751 to 0.000363751
Heightened Def Con from 0.000363777 to 0.000363779
Heightened Def Con from 0.000364375 to 0.000364376
Heightened Def Con from 0.00036625 to 0.000366251
Heightened Def Con from 0.000366875 to 0.000366876
Heightened Def Con from 0.0003675 to 0.000367501
Heightened Def Con from 0.000367527 to 0.000367539
Heightened Def Con from 0.000368125 to 0.000368126
Heightened Def Con from 0.00036875 to 0.000368751
Heightened Def Con from 0.000369375 to 0.000369376
Heightened Def Con from 0.00037 to 0.000370001
Heightened Def Con from 0.000370625 to 0.000370626
Heightened Def Con from 0.00037125 to 0.000371251
Heightened Def Con from 0.000371875 to 0.000371876
Heightened Def Con from 0.0003725 to 0.000372501
Heightened Def Con from 0.000373125 to 0.000373126
Heightened Def Con from 0.000374375 to 0.000374376
Heightened Def Con from 0.000375 to 0.000375001
Heightened Def Con from 0.000375625 to 0.000375626
Heightened Def Con from 0.00037625 to 0.000376251
Heightened Def Con from 0.000376875 to 0.000376876
Heightened Def Con from 0.000377501 to 0.000377501
Heightened Def Con from 0.000377527 to 0.000377539
Heightened Def Con from 0.000378126 to 0.000378126
Heightened Def Con from 0.000378151 to 0.000378152
Heightened Def Con from 0.000378751 to 0.000378751
Heightened Def Con from 0.000379375 to 0.000379376
Heightened Def Con from 0.000380001 to 0.000380001
Heightened Def Con from 0.000380026 to 0.000380027
Heightened Def Con from 0.000380626 to 0.000380626
Heightened Def Con from 0.000381251 to 0.000381251
Heightened Def Con from 0.000381277 to 0.000381279
Heightened Def Con from 0.000381876 to 0.000381876
Heightened Def Con from 0.0003825 to 0.000382501
Heightened Def Con from 0.000382527 to 0.000382539
Heightened Def Con from 0.000383125 to 0.000383126
Heightened Def Con from 0.00038375 to 0.000383751
Heightened Def Con from 0.000384375 to 0.000384376
Heightened Def Con from 0.000385001 to 0.000385001
Heightened Def Con from 0.000385026 to 0.000385027
Heightened Def Con from 0.000385651 to 0.000385652
Heightened Def Con from 0.00038625 to 0.000386251
Heightened Def Con from 0.000386875 to 0.000386876
Heightened Def Con from 0.0003875 to 0.000387501
Heightened Def Con from 0.000388751 to 0.000388751
Heightened Def Con from 0.000388776 to 0.000388777
Heightened Def Con from 0.00039 to 0.000390001
Heightened Def Con from 0.000391251 to 0.000391251
Heightened Def Con from 0.000391875 to 0.000391876
Heightened Def Con from 0.000392501 to 0.000392501
Heightened Def Con from 0.000393125 to 0.000393126
Heightened Def Con from 0.000393152 to 0.000393164
Heightened Def Con from 0.00039375 to 0.000393751
Heightened Def Con from 0.000394375 to 0.000394376
Heightened Def Con from 0.000395001 to 0.000395001
Heightened Def Con from 0.000395026 to 0.000395027
Heightened Def Con from 0.000395625 to 0.000395626
Heightened Def Con from 0.000396251 to 0.000396251
Heightened Def Con from 0.000396276 to 0.000396277
Heightened Def Con from 0.000396902 to 0.000396914
Heightened Def Con from 0.000397501 to 0.000397501
Heightened Def Con from 0.000397526 to 0.000397527
Heightened Def Con from 0.000398125 to 0.000398126
Heightened Def Con from 0.00039875 to 0.000398751
Heightened Def Con from 0.000398777 to 0.000398789
Heightened Def Con from 0.000399375 to 0.000399376
Heightened Def Con from 0.000399402 to 0.000399414
Heightened Def Con from 0.0004 to 0.000400001
Heightened Def Con from 0.000400625 to 0.000400626
Heightened Def Con from 0.000401251 to 0.000401251
Heightened Def Con from 0.000401875 to 0.000401876
Heightened Def Con from 0.0004025 to 0.000402501
Heightened Def Con from 0.000403125 to 0.000403126
Heightened Def Con from 0.000403751 to 0.000403751
Heightened Def Con from 0.000403776 to 0.000403777
Heightened Def Con from 0.000404375 to 0.000404376
Heightened Def Con from 0.000405001 to 0.000405001
Heightened Def Con from 0.000405625 to 0.000405626
Heightened Def Con from 0.00040625 to 0.000406251
Heightened Def Con from 0.000406902 to 0.000406914
Heightened Def Con from 0.000407501 to 0.000407501
Heightened Def Con from 0.000407526 to 0.000407527
Heightened Def Con from 0.00040875 to 0.000408751
Heightened Def Con from 0.000409376 to 0.000409376
Heightened Def Con from 0.000409402 to 0.000409404
Heightened Def Con from 0.00041 to 0.000410001
Heightened Def Con from 0.000410625 to 0.000410626
Heightened Def Con from 0.00041125 to 0.000411251
Heightened Def Con from 0.000412501 to 0.000412501
Heightened Def Con from 0.000412527 to 0.000412539
Heightened Def Con from 0.00041375 to 0.000413751
Heightened Def Con from 0.000414376 to 0.000414376
Heightened Def Con from 0.000414401 to 0.000414402
Heightened Def Con from 0.000415 to 0.000415001
Heightened Def Con from 0.00041625 to 0.000416251
Heightened Def Con from 0.000416875 to 0.000416876
Heightened Def Con from 0.0004175 to 0.000417501
Heightened Def Con from 0.000418125 to 0.000418126
Heightened Def Con from 0.000418751 to 0.000418751
Heightened Def Con from 0.000419375 to 0.000419376
Heightened Def Con from 0.00042 to 0.000420001
Heightened Def Con from 0.000420626 to 0.000420626
Heightened Def Con from 0.000420652 to 0.000420664
Heightened Def Con from 0.000421251 to 0.000421251
Heightened Def Con from 0.000421276 to 0.000421277
Heightened Def Con from 0.000421875 to 0.000421876
Heightened Def Con from 0.000423125 to 0.000423126
Heightened Def Con from 0.000424375 to 0.000424376
Heightened Def Con from 0.000425 to 0.000425001
Heightened Def Con from 0.000425625 to 0.000425626
Heightened Def Con from 0.00042625 to 0.000426251
Heightened Def Con from 0.000426875 to 0.000426876
Heightened Def Con from 0.000428125 to 0.000428126
Heightened Def Con from 0.000428152 to 0.000428164
Heightened Def Con from 0.00042875 to 0.000428751
Heightened Def Con from 0.000429375 to 0.000429376
Heightened Def Con from 0.00043 to 0.000430001
Heightened Def Con from 0.000430625 to 0.000430626
Heightened Def Con from 0.000431251 to 0.000431251
Heightened Def Con from 0.000431902 to 0.000431914
Heightened Def Con from 0.0004325 to 0.000432501
Heightened Def Con from 0.000432527 to 0.000432539
Heightened Def Con from 0.000433125 to 0.000433126
Heightened Def Con from 0.000434375 to 0.000434376
Heightened Def Con from 0.000435 to 0.000435001
Heightened Def Con from 0.000435625 to 0.000435626
Heightened Def Con from 0.00043625 to 0.000436251
Heightened Def Con from 0.000436876 to 0.000436876
Heightened Def Con from 0.000437501 to 0.000437501
Heightened Def Con from 0.000437527 to 0.000437529
Heightened Def Con from 0.000438125 to 0.000438126
Heightened Def Con from 0.000439375 to 0.000439376
Heightened Def Con from 0.00044 to 0.000440001
Heightened Def Con from 0.000440626 to 0.000440626
Heightened Def Con from 0.000442501 to 0.000442501
Heightened Def Con from 0.000442526 to 0.000442527
Heightened Def Con from 0.000443152 to 0.000443164
Heightened Def Con from 0.00044375 to 0.000443751
Heightened Def Con from 0.000444375 to 0.000444376
Heightened Def Con from 0.000445 to 0.000445001
Heightened Def Con from 0.000445625 to 0.000445626
Heightened Def Con from 0.00044625 to 0.000446251
Heightened Def Con from 0.000446875 to 0.000446876
Heightened Def Con from 0.000447501 to 0.000447501
Heightened Def Con from 0.000448125 to 0.000448126
Heightened Def Con from 0.000449375 to 0.000449376
Heightened Def Con from 0.00045 to 0.000450001
Heightened Def Con from 0.000450625 to 0.000450626
Heightened Def Con from 0.00045125 to 0.000451251
Heightened Def Con from 0.000451875 to 0.000451876
Heightened Def Con from 0.0004525 to 0.000452501
Heightened Def Con from 0.000453126 to 0.000453126
Heightened Def Con from 0.00045375 to 0.000453751
Heightened Def Con from 0.000454376 to 0.000454376
Heightened Def Con from 0.000454402 to 0.000454414
Heightened Def Con from 0.000455 to 0.000455001
Heightened Def Con from 0.000455625 to 0.000455626
Heightened Def Con from 0.000456277 to 0.000456289
Heightened Def Con from 0.000456875 to 0.000456876
Heightened Def Con from 0.0004575 to 0.000457501
Heightened Def Con from 0.000458125 to 0.000458126
Heightened Def Con from 0.00045875 to 0.000458751
Heightened Def Con from 0.000459376 to 0.000459376
Heightened Def Con from 0.00046125 to 0.000461251
Heightened Def Con from 0.000461875 to 0.000461876
Heightened Def Con from 0.000463125 to 0.000463126
Heightened Def Con from 0.000463751 to 0.000463751
Heightened Def Con from 0.000463776 to 0.000463777
Heightened Def Con from 0.000465 to 0.000465001
Heightened Def Con from 0.000465626 to 0.000465626
Heightened Def Con from 0.000465651 to 0.000465652
Heightened Def Con from 0.00046625 to 0.000466251
Heightened Def Con from 0.000466876 to 0.000466876
Heightened Def Con from 0.000466901 to 0.000466902
Heightened Def Con from 0.00046875 to 0.000468751
Heightened Def Con from 0.000469375 to 0.000469376
Heightened Def Con from 0.000469402 to 0.000469414
Heightened Def Con from 0.00047 to 0.000470001
Heightened Def Con from 0.000470625 to 0.000470626
Heightened Def Con from 0.00047125 to 0.000471251
Heightened Def Con from 0.000471277 to 0.000471289
Heightened Def Con from 0.000471875 to 0.000471876
Heightened Def Con from 0.0004725 to 0.000472501
Heightened Def Con from 0.000473125 to 0.000473126
Heightened Def Con from 0.00047375 to 0.000473751
Heightened Def Con from 0.000474375 to 0.000474376
Heightened Def Con from 0.000475 to 0.000475001
Heightened Def Con from 0.000475626 to 0.000475626
Heightened Def Con from 0.000475652 to 0.000475664
Heightened Def Con from 0.000476251 to 0.000476251
Heightened Def Con from 0.000476276 to 0.000476277
Heightened Def Con from 0.000476876 to 0.000476876
Heightened Def Con from 0.000476901 to 0.000476902
Heightened Def Con from 0.000477501 to 0.000477501
Heightened Def Con from 0.000477526 to 0.000477527
Heightened Def Con from 0.000478125 to 0.000478126
Heightened Def Con from 0.00047875 to 0.000478751
Heightened Def Con from 0.000479375 to 0.000479376
Heightened Def Con from 0.00048 to 0.000480001
Heightened Def Con from 0.000480625 to 0.000480626
Heightened Def Con from 0.000481251 to 0.000481251
Heightened Def Con from 0.000481876 to 0.000481876
Heightened Def Con from 0.0004825 to 0.000482501
Heightened Def Con from 0.000483125 to 0.000483126
Heightened Def Con from 0.000485 to 0.000485001
Heightened Def Con from 0.000485625 to 0.000485626
Heightened Def Con from 0.00048625 to 0.000486251
Heightened Def Con from 0.000486876 to 0.000486876
Heightened Def Con from 0.000487501 to 0.000487501
Heightened Def Con from 0.000488751 to 0.000488751
Heightened Def Con from 0.000489375 to 0.000489376
Heightened Def Con from 0.000490626 to 0.000490626
Heightened Def Con from 0.000490651 to 0.000490652
Heightened Def Con from 0.000491251 to 0.000491251
Heightened Def Con from 0.000491876 to 0.000491876
Heightened Def Con from 0.000491902 to 0.000491914
Heightened Def Con from 0.0004925 to 0.000492501
Heightened Def Con from 0.00049375 to 0.000493751
Heightened Def Con from 0.000494375 to 0.000494376
Heightened Def Con from 0.000495001 to 0.000495001
Heightened Def Con from 0.000495027 to 0.000495029
Heightened Def Con from 0.000495626 to 0.000495626
Heightened Def Con from 0.00049625 to 0.000496251
Heightened Def Con from 0.000496875 to 0.000496876
Heightened Def Con from 0.0004975 to 0.000497501
Heightened Def Con from 0.000498125 to 0.000498126
Heightened Def Con from 0.00049875 to 0.000498751
Heightened Def Con from 0.000499375 to 0.000499376
Heightened Def Con from 0.000500027 to 0.000500039
Heightened Def Con from 0.000500625 to 0.000500626
Heightened Def Con from 0.00050125 to 0.000501251
Heightened Def Con from 0.000501875 to 0.000501876
Heightened Def Con from 0.0005025 to 0.000502501
Heightened Def Con from 0.000503126 to 0.000503126
Heightened Def Con from 0.000503151 to 0.000503152
Heightened Def Con from 0.000505001 to 0.000505001
Heightened Def Con from 0.000505625 to 0.000505626
Heightened Def Con from 0.0005075 to 0.000507501
Heightened Def Con from 0.000508126 to 0.000508126
Heightened Def Con from 0.000508151 to 0.000508152
Heightened Def Con from 0.00050875 to 0.000508751
Heightened Def Con from 0.000509375 to 0.000509376
Heightened Def Con from 0.00051 to 0.000510001
Heightened Def Con from 0.000510626 to 0.000510626
Heightened Def Con from 0.000510651 to 0.000510652
Heightened Def Con from 0.000511876 to 0.000511876
Heightened Def Con from 0.000511901 to 0.000511902
Heightened Def Con from 0.0005125 to 0.000512501
Heightened Def Con from 0.000513126 to 0.000513126
Heightened Def Con from 0.000514375 to 0.000514376
Heightened Def Con from 0.000515 to 0.000515001
Heightened Def Con from 0.000515626 to 0.000515626
Heightened Def Con from 0.00051625 to 0.000516251
Heightened Def Con from 0.0005175 to 0.000517501
Heightened Def Con from 0.000518126 to 0.000518126
Heightened Def Con from 0.000518151 to 0.000518152
Heightened Def Con from 0.000518751 to 0.000518751
Heightened Def Con from 0.000518776 to 0.000518777
Heightened Def Con from 0.000519375 to 0.000519376
Heightened Def Con from 0.000519402 to 0.000519414
Heightened Def Con from 0.00052 to 0.000520001
Heightened Def Con from 0.000521876 to 0.000521876
Heightened Def Con from 0.000521902 to 0.000521914
Heightened Def Con from 0.000522501 to 0.000522501
Heightened Def Con from 0.000523777 to 0.000523789
Heightened Def Con from 0.000524375 to 0.000524376
Heightened Def Con from 0.000525 to 0.000525001
Heightened Def Con from 0.000525625 to 0.000525626
Heightened Def Con from 0.00052625 to 0.000526251
Heightened Def Con from 0.000526875 to 0.000526876
Heightened Def Con from 0.000528751 to 0.000528751
Heightened Def Con from 0.000529375 to 0.000529376
Heightened Def Con from 0.00053 to 0.000530001
Heightened Def Con from 0.000530625 to 0.000530626
Heightened Def Con from 0.000531876 to 0.000531876
Heightened Def Con from 0.000531901 to 0.000531902
Heightened Def Con from 0.00053375 to 0.000533751
Heightened Def Con from 0.000534375 to 0.000534376
Heightened Def Con from 0.000535 to 0.000535001
Heightened Def Con from 0.000535626 to 0.000535626
Heightened Def Con from 0.000535651 to 0.000535652
Heightened Def Con from 0.000536251 to 0.000536251
Heightened Def Con from 0.000536276 to 0.000536277
Heightened Def Con from 0.000536875 to 0.000536876
Heightened Def Con from 0.000538126 to 0.000538126
Heightened Def Con from 0.000538151 to 0.000538152
Heightened Def Con from 0.00053875 to 0.000538751
Heightened Def Con from 0.000539376 to 0.000539376
Heightened Def Con from 0.000539401 to 0.000539402
Heightened Def Con from 0.000540001 to 0.000540001
Heightened Def Con from 0.000540027 to 0.000540027
Heightened Def Con from 0.000540625 to 0.000540626
Heightened Def Con from 0.000541875 to 0.000541876
Heightened Def Con from 0.000542501 to 0.000542501
Heightened Def Con from 0.000542526 to 0.000542527
Heightened Def Con from 0.000543125 to 0.000543126
Heightened Def Con from 0.000543777 to 0.000543789
Heightened Def Con from 0.000544376 to 0.000544376
Heightened Def Con from 0.000544401 to 0.000544402
Heightened Def Con from 0.000545 to 0.000545001
Heightened Def Con from 0.00054625 to 0.000546251
Heightened Def Con from 0.000547501 to 0.000547501
Heightened Def Con from 0.000547526 to 0.000547527
Heightened Def Con from 0.000548125 to 0.000548126
Heightened Def Con from 0.00054875 to 0.000548751
Heightened Def Con from 0.000548777 to 0.000548789
Heightened Def Con from 0.00055 to 0.000550001
Heightened Def Con from 0.000550625 to 0.000550626
Heightened Def Con from 0.000550652 to 0.000550664
Heightened Def Con from 0.00055125 to 0.000551251
Heightened Def Con from 0.000551875 to 0.000551876
Heightened Def Con from 0.000552501 to 0.000552501
Heightened Def Con from 0.000552527 to 0.000552539
Heightened Def Con from 0.000553125 to 0.000553126
Heightened Def Con from 0.000553751 to 0.000553751
Heightened Def Con from 0.000553777 to 0.000553789
Heightened Def Con from 0.000554375 to 0.000554376
Heightened Def Con from 0.000555001 to 0.000555001
Heightened Def Con from 0.000555026 to 0.000555027
Heightened Def Con from 0.000555625 to 0.000555626
Heightened Def Con from 0.000556251 to 0.000556251
Heightened Def Con from 0.000556276 to 0.000556277
Heightened Def Con from 0.000556875 to 0.000556876
Heightened Def Con from 0.0005575 to 0.000557501
Heightened Def Con from 0.000558125 to 0.000558126
Heightened Def Con from 0.000559376 to 0.000559376
Heightened Def Con from 0.000559401 to 0.000559402
Heightened Def Con from 0.000560001 to 0.000560001
Heightened Def Con from 0.000560026 to 0.000560027
Heightened Def Con from 0.00056125 to 0.000561251
Heightened Def Con from 0.000561875 to 0.000561876
Heightened Def Con from 0.0005625 to 0.000562501
Heightened Def Con from 0.000562527 to 0.000562539
Heightened Def Con from 0.00056375 to 0.000563751
Heightened Def Con from 0.000565625 to 0.000565626
Heightened Def Con from 0.00056625 to 0.000566251
Heightened Def Con from 0.000566277 to 0.000566289
Heightened Def Con from 0.000566876 to 0.000566876
Heightened Def Con from 0.0005675 to 0.000567501
Heightened Def Con from 0.000568126 to 0.000568126
Heightened Def Con from 0.000568152 to 0.000568164
Heightened Def Con from 0.00056875 to 0.000568751
Heightened Def Con from 0.000568777 to 0.000568789
Heightened Def Con from 0.000569375 to 0.000569376
Heightened Def Con from 0.00057 to 0.000570001
Heightened Def Con from 0.000570625 to 0.000570626
Heightened Def Con from 0.000570652 to 0.000570664
Heightened Def Con from 0.00057125 to 0.000571251
Heightened Def Con from 0.000571875 to 0.000571876
Heightened Def Con from 0.000571902 to 0.000571914
Heightened Def Con from 0.0005725 to 0.000572501
Heightened Def Con from 0.000573126 to 0.000573126
Heightened Def Con from 0.000573152 to 0.000573152
Heightened Def Con from 0.00057375 to 0.000573751
Heightened Def Con from 0.000574375 to 0.000574376
Heightened Def Con from 0.000575001 to 0.000575001
Heightened Def Con from 0.000575026 to 0.000575027
Heightened Def Con from 0.000576876 to 0.000576876
Heightened Def Con from 0.0005775 to 0.000577501
Heightened Def Con from 0.000578125 to 0.000578126
Heightened Def Con from 0.000580001 to 0.000580001
Heightened Def Con from 0.000580026 to 0.000580027
Heightened Def Con from 0.000580651 to 0.000580652
Heightened Def Con from 0.00058125 to 0.000581251
Heightened Def Con from 0.000581876 to 0.000581876
Heightened Def Con from 0.000581902 to 0.000581914
Heightened Def Con from 0.0005825 to 0.000582501
Heightened Def Con from 0.00058375 to 0.000583751
Heightened Def Con from 0.000585001 to 0.000585001
Heightened Def Con from 0.000585027 to 0.000585039
Heightened Def Con from 0.000586251 to 0.000586251
Heightened Def Con from 0.000586276 to 0.000586277
Heightened Def Con from 0.0005875 to 0.000587501
Heightened Def Con from 0.000587527 to 0.000587539
Heightened Def Con from 0.000588125 to 0.000588126
Heightened Def Con from 0.000588152 to 0.000588164
Heightened Def Con from 0.000588751 to 0.000588751
Heightened Def Con from 0.000588776 to 0.000588777
Heightened Def Con from 0.000589402 to 0.000589414
Heightened Def Con from 0.000590001 to 0.000590001
Heightened Def Con from 0.00059125 to 0.000591251
Heightened Def Con from 0.000591875 to 0.000591876
Heightened Def Con from 0.000593751 to 0.000593751
Heightened Def Con from 0.000594375 to 0.000594376
Heightened Def Con from 0.000595 to 0.000595001
Heightened Def Con from 0.000595626 to 0.000595626
Heightened Def Con from 0.000595651 to 0.000595652
Heightened Def Con from 0.00059625 to 0.000596251
Heightened Def Con from 0.000596277 to 0.000596289
Heightened Def Con from 0.000596875 to 0.000596876
Heightened Def Con from 0.000597501 to 0.000597501
Heightened Def Con from 0.000597527 to 0.000597529
Heightened Def Con from 0.00059875 to 0.000598751
Heightened Def Con from 0.000599375 to 0.000599376
Heightened Def Con from 0.0006 to 0.000600001
Heightened Def Con from 0.000601251 to 0.000601251
Heightened Def Con from 0.000601875 to 0.000601876
Heightened Def Con from 0.000601902 to 0.000601914
Heightened Def Con from 0.000602501 to 0.000602501
Heightened Def Con from 0.000603125 to 0.000603126
Heightened Def Con from 0.000603152 to 0.000603164
Heightened Def Con from 0.00060375 to 0.000603751
Heightened Def Con from 0.000605 to 0.000605001
Heightened Def Con from 0.000606876 to 0.000606876
Heightened Def Con from 0.0006075 to 0.000607501
Heightened Def Con from 0.000609376 to 0.000609376
Heightened Def Con from 0.000609401 to 0.000609402
Heightened Def Con from 0.00061 to 0.000610001
Heightened Def Con from 0.00061125 to 0.000611251
Heightened Def Con from 0.000611875 to 0.000611876
Heightened Def Con from 0.000612501 to 0.000612501
Heightened Def Con from 0.000612527 to 0.000612539
Heightened Def Con from 0.00061375 to 0.000613751
Heightened Def Con from 0.000614376 to 0.000614376
Heightened Def Con from 0.000614402 to 0.000614414
Heightened Def Con from 0.000615 to 0.000615001
Heightened Def Con from 0.000615625 to 0.000615626
Heightened Def Con from 0.000616875 to 0.000616876
Heightened Def Con from 0.0006175 to 0.000617501
Heightened Def Con from 0.000618125 to 0.000618126
Heightened Def Con from 0.000618751 to 0.000618751
Heightened Def Con from 0.000619376 to 0.000619376
Heightened Def Con from 0.000619401 to 0.000619402
Heightened Def Con from 0.000620626 to 0.000620626
Heightened Def Con from 0.000620651 to 0.000620652
Heightened Def Con from 0.000621876 to 0.000621876
Heightened Def Con from 0.0006225 to 0.000622501
Heightened Def Con from 0.000623126 to 0.000623126
Heightened Def Con from 0.000623751 to 0.000623751
Heightened Def Con from 0.000623776 to 0.000623777
Heightened Def Con from 0.000625 to 0.000625001
Heightened Def Con from 0.000625626 to 0.000625626
Heightened Def Con from 0.000626875 to 0.000626876
Heightened Def Con from 0.000627501 to 0.000627501
Heightened Def Con from 0.00062875 to 0.000628751
Heightened Def Con from 0.000629375 to 0.000629376
Heightened Def Con from 0.00063 to 0.000630001
Heightened Def Con from 0.00063125 to 0.000631251
Heightened Def Con from 0.000631875 to 0.000631876
Heightened Def Con from 0.000632527 to 0.000632539
Heightened Def Con from 0.000633125 to 0.000633126
Heightened Def Con from 0.000633751 to 0.000633751
Heightened Def Con from 0.000634375 to 0.000634376
Heightened Def Con from 0.000635 to 0.000635001
Heightened Def Con from 0.000635626 to 0.000635626
Heightened Def Con from 0.000635651 to 0.000635652
Heightened Def Con from 0.00063625 to 0.000636251
Heightened Def Con from 0.000636876 to 0.000636876
Heightened Def Con from 0.000636901 to 0.000636902
Heightened Def Con from 0.000638126 to 0.000638126
Heightened Def Con from 0.000638151 to 0.000638152
Heightened Def Con from 0.00063875 to 0.000638751
Heightened Def Con from 0.000639376 to 0.000639376
Heightened Def Con from 0.000640625 to 0.000640626
Heightened Def Con from 0.00064125 to 0.000641251
Heightened Def Con from 0.000641875 to 0.000641876
Heightened Def Con from 0.000642526 to 0.000642527
Heightened Def Con from 0.000643751 to 0.000643751
Heightened Def Con from 0.000644375 to 0.000644376
Heightened Def Con from 0.000645001 to 0.000645001
Heightened Def Con from 0.00064625 to 0.000646251
Heightened Def Con from 0.000647501 to 0.000647501
Heightened Def Con from 0.000647526 to 0.000647527
Heightened Def Con from 0.00064875 to 0.000648751
Heightened Def Con from 0.000650625 to 0.000650626
Heightened Def Con from 0.00065125 to 0.000651251
Heightened Def Con from 0.0006525 to 0.000652501
Heightened Def Con from 0.00065375 to 0.000653751
Heightened Def Con from 0.000653777 to 0.000653789
Heightened Def Con from 0.000654401 to 0.000654402
Heightened Def Con from 0.000655001 to 0.000655001
Heightened Def Con from 0.000655026 to 0.000655027
Heightened Def Con from 0.000655625 to 0.000655626
Heightened Def Con from 0.000656875 to 0.000656876
Heightened Def Con from 0.000658126 to 0.000658126
Heightened Def Con from 0.000658151 to 0.000658152
Heightened Def Con from 0.000659376 to 0.000659376
Heightened Def Con from 0.00066 to 0.000660001
Heightened Def Con from 0.000660625 to 0.000660626
Heightened Def Con from 0.00066125 to 0.000661251
Heightened Def Con from 0.000661876 to 0.000661876
Heightened Def Con from 0.000661902 to 0.000661904
Heightened Def Con from 0.000663125 to 0.000663126
Heightened Def Con from 0.00066375 to 0.000663751
Heightened Def Con from 0.000664375 to 0.000664376
Heightened Def Con from 0.000665027 to 0.000665039
Heightened Def Con from 0.000665625 to 0.000665626
Heightened Def Con from 0.000666875 to 0.000666876
Heightened Def Con from 0.000666902 to 0.000666914
Heightened Def Con from 0.0006675 to 0.000667501
Heightened Def Con from 0.000668125 to 0.000668126
Heightened Def Con from 0.00066875 to 0.000668751
Heightened Def Con from 0.000669375 to 0.000669376
Heightened Def Con from 0.000669402 to 0.000669414
Heightened Def Con from 0.000670001 to 0.000670001
Heightened Def Con from 0.000670026 to 0.000670027
Heightened Def Con from 0.00067125 to 0.000671251
Heightened Def Con from 0.000671875 to 0.000671876
Heightened Def Con from 0.000673125 to 0.000673126
Heightened Def Con from 0.00067375 to 0.000673751
Heightened Def Con from 0.000674375 to 0.000674376
Heightened Def Con from 0.000675 to 0.000675001
Heightened Def Con from 0.000675625 to 0.000675626
Heightened Def Con from 0.00067625 to 0.000676251
Heightened Def Con from 0.000676875 to 0.000676876
Heightened Def Con from 0.000676902 to 0.000676914
Heightened Def Con from 0.000678125 to 0.000678126
Heightened Def Con from 0.000678152 to 0.000678164
Heightened Def Con from 0.000680625 to 0.000680626
Heightened Def Con from 0.00068125 to 0.000681251
Heightened Def Con from 0.000681875 to 0.000681876
Heightened Def Con from 0.0006825 to 0.000682501
Heightened Def Con from 0.000683125 to 0.000683126
Heightened Def Con from 0.000684375 to 0.000684376
Heightened Def Con from 0.000685001 to 0.000685001
Heightened Def Con from 0.000685626 to 0.000685626
Heightened Def Con from 0.000685651 to 0.000685652
Heightened Def Con from 0.00068625 to 0.000686251
Heightened Def Con from 0.000686876 to 0.000686876
Heightened Def Con from 0.000687501 to 0.000687501
Heightened Def Con from 0.000687527 to 0.000687539
Heightened Def Con from 0.000688126 to 0.000688126
Heightened Def Con from 0.000689375 to 0.000689376
Heightened Def Con from 0.00069 to 0.000690001
Heightened Def Con from 0.00069125 to 0.000691251
Heightened Def Con from 0.000691875 to 0.000691876
Heightened Def Con from 0.000693125 to 0.000693126
Heightened Def Con from 0.000694375 to 0.000694376
Heightened Def Con from 0.000695 to 0.000695001
Heightened Def Con from 0.000695026 to 0.000695027
Heightened Def Con from 0.000696251 to 0.000696251
Heightened Def Con from 0.000696276 to 0.000696277
Heightened Def Con from 0.000696876 to 0.000696876
Heightened Def Con from 0.000696901 to 0.000696902
Heightened Def Con from 0.00069875 to 0.000698751
Heightened Def Con from 0.000699376 to 0.000699376
Heightened Def Con from 0.000699402 to 0.000699402
Heightened Def Con from 0.000700625 to 0.000700626
Heightened Def Con from 0.000701876 to 0.000701876
Heightened Def Con from 0.000702501 to 0.000702501
Heightened Def Con from 0.000703125 to 0.000703126
Heightened Def Con from 0.000703751 to 0.000703751
Heightened Def Con from 0.000703777 to 0.000703789
Heightened Def Con from 0.000704375 to 0.000704376
Heightened Def Con from 0.000704402 to 0.000704414
Heightened Def Con from 0.000705 to 0.000705001
Heightened Def Con from 0.000705626 to 0.000705626
Heightened Def Con from 0.000706277 to 0.000706289
Heightened Def Con from 0.000706876 to 0.000706876
Heightened Def Con from 0.000706901 to 0.000706902
Heightened Def Con from 0.000708125 to 0.000708126
Heightened Def Con from 0.000708751 to 0.000708751
Heightened Def Con from 0.000708776 to 0.000708777
Heightened Def Con from 0.000709375 to 0.000709376
Heightened Def Con from 0.000710626 to 0.000710626
Heightened Def Con from 0.000711251 to 0.000711251
Heightened Def Con from 0.000711875 to 0.000711876
Heightened Def Con from 0.000711902 to 0.000711914
Heightened Def Con from 0.000713126 to 0.000713126
Heightened Def Con from 0.000713151 to 0.000713152
Heightened Def Con from 0.00071375 to 0.000713751
Heightened Def Con from 0.000714375 to 0.000714376
Heightened Def Con from 0.000715 to 0.000715001
Heightened Def Con from 0.000715626 to 0.000715626
Heightened Def Con from 0.000716251 to 0.000716251
Heightened Def Con from 0.000716876 to 0.000716876
Heightened Def Con from 0.000716901 to 0.000716902
Heightened Def Con from 0.000717501 to 0.000717501
Heightened Def Con from 0.000718125 to 0.000718126
Heightened Def Con from 0.000718152 to 0.000718154
Heightened Def Con from 0.00071875 to 0.000718751
Heightened Def Con from 0.000719375 to 0.000719376
Heightened Def Con from 0.000720001 to 0.000720001
Heightened Def Con from 0.000720026 to 0.000720027
Heightened Def Con from 0.000720625 to 0.000720626
Heightened Def Con from 0.0007225 to 0.000722501
Heightened Def Con from 0.00072375 to 0.000723751
Heightened Def Con from 0.000724375 to 0.000724376
Heightened Def Con from 0.000725 to 0.000725001
Heightened Def Con from 0.000725625 to 0.000725626
Heightened Def Con from 0.000725652 to 0.000725664
Heightened Def Con from 0.000726251 to 0.000726251
Heightened Def Con from 0.000726875 to 0.000726876
Heightened Def Con from 0.0007275 to 0.000727501
Heightened Def Con from 0.000727527 to 0.000727539
Heightened Def Con from 0.00072875 to 0.000728751
Heightened Def Con from 0.000730625 to 0.000730626
Heightened Def Con from 0.00073125 to 0.000731251
Heightened Def Con from 0.000732501 to 0.000732501
Heightened Def Con from 0.000733126 to 0.000733126
Heightened Def Con from 0.000733151 to 0.000733152
Heightened Def Con from 0.00073375 to 0.000733751
Heightened Def Con from 0.000734375 to 0.000734376
Heightened Def Con from 0.000735 to 0.000735001
Heightened Def Con from 0.00073625 to 0.000736251
Heightened Def Con from 0.000736875 to 0.000736876
Heightened Def Con from 0.000738125 to 0.000738126
Heightened Def Con from 0.00073875 to 0.000738751
Heightened Def Con from 0.000739375 to 0.000739376
Heightened Def Con from 0.000740625 to 0.000740626
Heightened Def Con from 0.000741251 to 0.000741251
Heightened Def Con from 0.000741276 to 0.000741277
Heightened Def Con from 0.000741875 to 0.000741876
Heightened Def Con from 0.0007425 to 0.000742501
Heightened Def Con from 0.000743126 to 0.000743126
Heightened Def Con from 0.000743751 to 0.000743751
Heightened Def Con from 0.000744375 to 0.000744376
Heightened Def Con from 0.000746875 to 0.000746876
Heightened Def Con from 0.0007475 to 0.000747501
Heightened Def Con from 0.000748125 to 0.000748126
Heightened Def Con from 0.000749376 to 0.000749376
Heightened Def Con from 0.00075 to 0.000750001
Heightened Def Con from 0.000750626 to 0.000750626
Heightened Def Con from 0.000750651 to 0.000750652
Heightened Def Con from 0.00075125 to 0.000751251
Heightened Def Con from 0.0007525 to 0.000752501
Heightened Def Con from 0.000753125 to 0.000753126
Heightened Def Con from 0.00075375 to 0.000753751
Heightened Def Con from 0.000754376 to 0.000754376
Heightened Def Con from 0.000754402 to 0.000754402
Heightened Def Con from 0.000755625 to 0.000755626
Heightened Def Con from 0.00075625 to 0.000756251
Heightened Def Con from 0.000756875 to 0.000756876
Heightened Def Con from 0.000758126 to 0.000758126
Heightened Def Con from 0.000758151 to 0.000758152
Heightened Def Con from 0.00075875 to 0.000758751
Heightened Def Con from 0.000759376 to 0.000759376
Heightened Def Con from 0.00076 to 0.000760001
Heightened Def Con from 0.000760625 to 0.000760626
Heightened Def Con from 0.000760652 to 0.000760664
Heightened Def Con from 0.000761251 to 0.000761251
Heightened Def Con from 0.000761276 to 0.000761277
Heightened Def Con from 0.000761876 to 0.000761876
Heightened Def Con from 0.0007625 to 0.000762501
Heightened Def Con from 0.000762527 to 0.000762539
Heightened Def Con from 0.000763152 to 0.000763164
Heightened Def Con from 0.00076375 to 0.000763751
Heightened Def Con from 0.000763776 to 0.000763777
Heightened Def Con from 0.000764375 to 0.000764376
Heightened Def Con from 0.000765626 to 0.000765626
Heightened Def Con from 0.000766251 to 0.000766251
Heightened Def Con from 0.000766277 to 0.000766289
Heightened Def Con from 0.000766875 to 0.000766876
Heightened Def Con from 0.0007675 to 0.000767501
Heightened Def Con from 0.000768125 to 0.000768126
Heightened Def Con from 0.00076875 to 0.000768751
Heightened Def Con from 0.000769375 to 0.000769376
Heightened Def Con from 0.000770027 to 0.000770039
Heightened Def Con from 0.000770625 to 0.000770626
Heightened Def Con from 0.00077125 to 0.000771251
Heightened Def Con from 0.000771875 to 0.000771876
Heightened Def Con from 0.0007725 to 0.000772501
Heightened Def Con from 0.000773751 to 0.000773751
Heightened Def Con from 0.000773777 to 0.000773779
Heightened Def Con from 0.000774376 to 0.000774376
Heightened Def Con from 0.000775 to 0.000775001
Heightened Def Con from 0.000775625 to 0.000775626
Heightened Def Con from 0.00077625 to 0.000776251
Heightened Def Con from 0.000776875 to 0.000776876
Heightened Def Con from 0.0007775 to 0.000777501
Heightened Def Con from 0.000778125 to 0.000778126
Heightened Def Con from 0.00077875 to 0.000778751
Heightened Def Con from 0.00078125 to 0.000781251
Heightened Def Con from 0.000781277 to 0.000781289
Heightened Def Con from 0.000781875 to 0.000781876
Heightened Def Con from 0.000783126 to 0.000783126
Heightened Def Con from 0.000783751 to 0.000783751
Heightened Def Con from 0.000783776 to 0.000783777
Heightened Def Con from 0.000785 to 0.000785001
Heightened Def Con from 0.000785027 to 0.000785039
Heightened Def Con from 0.000785625 to 0.000785626
Heightened Def Con from 0.000786251 to 0.000786251
Heightened Def Con from 0.000786876 to 0.000786876
Heightened Def Con from 0.000786901 to 0.000786902
Heightened Def Con from 0.0007875 to 0.000787501
Heightened Def Con from 0.000788125 to 0.000788126
Heightened Def Con from 0.000788751 to 0.000788751
Heightened Def Con from 0.000788776 to 0.000788777
Heightened Def Con from 0.000789375 to 0.000789376
Heightened Def Con from 0.00079 to 0.000790001
Heightened Def Con from 0.000790625 to 0.000790626
Heightened Def Con from 0.000791875 to 0.000791876
Heightened Def Con from 0.000793125 to 0.000793126
Heightened Def Con from 0.000793751 to 0.000793751
Heightened Def Con from 0.000793777 to 0.000793779
Heightened Def Con from 0.000794376 to 0.000794376
Heightened Def Con from 0.000794401 to 0.000794402
Heightened Def Con from 0.000795 to 0.000795001
Heightened Def Con from 0.000795626 to 0.000795626
Heightened Def Con from 0.000795651 to 0.000795652
Heightened Def Con from 0.00079625 to 0.000796251
Heightened Def Con from 0.000796876 to 0.000796876
Heightened Def Con from 0.0007975 to 0.000797501
Heightened Def Con from 0.000798125 to 0.000798126
Heightened Def Con from 0.00079875 to 0.000798751
Heightened Def Con from 0.000800027 to 0.000800039
Heightened Def Con from 0.000800625 to 0.000800626
Heightened Def Con from 0.000800652 to 0.000800664
Heightened Def Con from 0.00080125 to 0.000801251
Heightened Def Con from 0.0008025 to 0.000802501
Heightened Def Con from 0.000803126 to 0.000803126
Heightened Def Con from 0.000803151 to 0.000803152
Heightened Def Con from 0.00080375 to 0.000803751
Heightened Def Con from 0.000804375 to 0.000804376
Heightened Def Con from 0.000805 to 0.000805001
Heightened Def Con from 0.000805625 to 0.000805626
Heightened Def Con from 0.00080625 to 0.000806251
Heightened Def Con from 0.0008075 to 0.000807501
Heightened Def Con from 0.000807527 to 0.000807539
Heightened Def Con from 0.000808126 to 0.000808126
Heightened Def Con from 0.000808152 to 0.000808154
Heightened Def Con from 0.00080875 to 0.000808751
Heightened Def Con from 0.000809402 to 0.000809414
Heightened Def Con from 0.000810625 to 0.000810626
Heightened Def Con from 0.00081125 to 0.000811251
Heightened Def Con from 0.000811875 to 0.000811876
Heightened Def Con from 0.0008125 to 0.000812501
Heightened Def Con from 0.000813126 to 0.000813126
Heightened Def Con from 0.000815626 to 0.000815626
Heightened Def Con from 0.000816876 to 0.000816876
Heightened Def Con from 0.000817501 to 0.000817501
Heightened Def Con from 0.000817526 to 0.000817527
Heightened Def Con from 0.00081875 to 0.000818751
Heightened Def Con from 0.000819375 to 0.000819376
Heightened Def Con from 0.000820625 to 0.000820626
Heightened Def Con from 0.00082125 to 0.000821251
Heightened Def Con from 0.000821876 to 0.000821876
Heightened Def Con from 0.000821901 to 0.000821902
Heightened Def Con from 0.0008225 to 0.000822501
Heightened Def Con from 0.000823125 to 0.000823126
Heightened Def Con from 0.000823751 to 0.000823751
Heightened Def Con from 0.000823777 to 0.000823777
Heightened Def Con from 0.000824375 to 0.000824376
Heightened Def Con from 0.000825 to 0.000825001
Heightened Def Con from 0.00082625 to 0.000826251
Heightened Def Con from 0.000826875 to 0.000826876
Heightened Def Con from 0.0008275 to 0.000827501
Heightened Def Con from 0.000828125 to 0.000828126
Heightened Def Con from 0.000829375 to 0.000829376
Heightened Def Con from 0.000830001 to 0.000830001
Heightened Def Con from 0.000830026 to 0.000830027
Heightened Def Con from 0.000832501 to 0.000832501
Heightened Def Con from 0.000832526 to 0.000832527
Heightened Def Con from 0.000833125 to 0.000833126
Heightened Def Con from 0.000833751 to 0.000833751
Heightened Def Con from 0.000833776 to 0.000833777
Heightened Def Con from 0.000834376 to 0.000834376
Heightened Def Con from 0.000835 to 0.000835001
Heightened Def Con from 0.000835626 to 0.000835626
Heightened Def Con from 0.000835651 to 0.000835652
Heightened Def Con from 0.000836251 to 0.000836251
Heightened Def Con from 0.000836276 to 0.000836277
Heightened Def Con from 0.0008375 to 0.000837501
Heightened Def Con from 0.000838125 to 0.000838126
Heightened Def Con from 0.000838751 to 0.000838751
Heightened Def Con from 0.000838776 to 0.000838777
Heightened Def Con from 0.000839375 to 0.000839376
Heightened Def Con from 0.00084 to 0.000840001
Heightened Def Con from 0.000840626 to 0.000840626
Heightened Def Con from 0.00084125 to 0.000841251
Heightened Def Con from 0.000841277 to 0.000841289
Heightened Def Con from 0.000841876 to 0.000841876
Heightened Def Con from 0.000843751 to 0.000843751
Heightened Def Con from 0.000843776 to 0.000843777
Heightened Def Con from 0.000844375 to 0.000844376
Heightened Def Con from 0.000845001 to 0.000845001
Heightened Def Con from 0.000845026 to 0.000845027
Heightened Def Con from 0.000845626 to 0.000845626
Heightened Def Con from 0.000845651 to 0.000845652
Heightened Def Con from 0.00084625 to 0.000846251
Heightened Def Con from 0.000846876 to 0.000846876
Heightened Def Con from 0.00084875 to 0.000848751
Heightened Def Con from 0.000848777 to 0.000848789
Heightened Def Con from 0.000849375 to 0.000849376
Heightened Def Con from 0.00085 to 0.000850001
Heightened Def Con from 0.000850625 to 0.000850626
Heightened Def Con from 0.000851251 to 0.000851251
Heightened Def Con from 0.000851875 to 0.000851876
Heightened Def Con from 0.0008525 to 0.000852501
Heightened Def Con from 0.000852527 to 0.000852539
Heightened Def Con from 0.000853125 to 0.000853126
Heightened Def Con from 0.00085375 to 0.000853751
Heightened Def Con from 0.000854375 to 0.000854376
Heightened Def Con from 0.000855625 to 0.000855626
Heightened Def Con from 0.00085625 to 0.000856251
Heightened Def Con from 0.0008575 to 0.000857501
Heightened Def Con from 0.000858125 to 0.000858126
Heightened Def Con from 0.00085875 to 0.000858751
Heightened Def Con from 0.000859375 to 0.000859376
Heightened Def Con from 0.000860626 to 0.000860626
Heightened Def Con from 0.000860651 to 0.000860652
Heightened Def Con from 0.000861902 to 0.000861914
Heightened Def Con from 0.0008625 to 0.000862501
Heightened Def Con from 0.000863126 to 0.000863126
Heightened Def Con from 0.000863151 to 0.000863152
Heightened Def Con from 0.000864375 to 0.000864376
Heightened Def Con from 0.000865 to 0.000865001
Heightened Def Con from 0.000865626 to 0.000865626
Heightened Def Con from 0.000865651 to 0.000865652
Heightened Def Con from 0.000866251 to 0.000866251
Heightened Def Con from 0.000866277 to 0.000866289
Heightened Def Con from 0.000866875 to 0.000866876
Heightened Def Con from 0.000868751 to 0.000868751
Heightened Def Con from 0.000868776 to 0.000868777
Heightened Def Con from 0.000869375 to 0.000869376
Heightened Def Con from 0.00087 to 0.000870001
Heightened Def Con from 0.000871251 to 0.000871251
Heightened Def Con from 0.000871276 to 0.000871277
Heightened Def Con from 0.000871876 to 0.000871876
Heightened Def Con from 0.000872501 to 0.000872501
Heightened Def Con from 0.000873126 to 0.000873126
Heightened Def Con from 0.000873751 to 0.000873751
Heightened Def Con from 0.000873776 to 0.000873777
Heightened Def Con from 0.000874375 to 0.000874376
Heightened Def Con from 0.000875 to 0.000875001
Heightened Def Con from 0.000875027 to 0.000875039
Heightened Def Con from 0.000875625 to 0.000875626
Heightened Def Con from 0.00087625 to 0.000876251
Heightened Def Con from 0.000876875 to 0.000876876
Heightened Def Con from 0.0008775 to 0.000877501
Heightened Def Con from 0.000878126 to 0.000878126
Heightened Def Con from 0.00087875 to 0.000878751
Heightened Def Con from 0.000879376 to 0.000879376
Heightened Def Con from 0.00088 to 0.000880001
Heightened Def Con from 0.000880625 to 0.000880626
Heightened Def Con from 0.000881251 to 0.000881251
Heightened Def Con from 0.000881276 to 0.000881277
Heightened Def Con from 0.000881875 to 0.000881876
Heightened Def Con from 0.00088375 to 0.000883751
Heightened Def Con from 0.000885001 to 0.000885001
Heightened Def Con from 0.000885026 to 0.000885027
Heightened Def Con from 0.000885626 to 0.000885626
Heightened Def Con from 0.00088625 to 0.000886251
Heightened Def Con from 0.000886875 to 0.000886876
Heightened Def Con from 0.0008875 to 0.000887501
Heightened Def Con from 0.000888125 to 0.000888126
Heightened Def Con from 0.000888751 to 0.000888751
Heightened Def Con from 0.000890001 to 0.000890001
Heightened Def Con from 0.000890026 to 0.000890027
Heightened Def Con from 0.000890625 to 0.000890626
Heightened Def Con from 0.00089125 to 0.000891251
Heightened Def Con from 0.000891876 to 0.000891876
Heightened Def Con from 0.000891901 to 0.000891902
Heightened Def Con from 0.0008925 to 0.000892501
Heightened Def Con from 0.00089375 to 0.000893751
Heightened Def Con from 0.000894375 to 0.000894376
Heightened Def Con from 0.000895 to 0.000895001
Heightened Def Con from 0.000895626 to 0.000895626
Heightened Def Con from 0.0008975 to 0.000897501
Heightened Def Con from 0.000898125 to 0.000898126
Heightened Def Con from 0.00089875 to 0.000898751
Heightened Def Con from 0.000899375 to 0.000899376
Heightened Def Con from 0.000899402 to 0.000899414
Heightened Def Con from 0.000900626 to 0.000900626
Heightened Def Con from 0.000900651 to 0.000900652
Heightened Def Con from 0.000901251 to 0.000901251
Heightened Def Con from 0.000901276 to 0.000901277
Heightened Def Con from 0.000901876 to 0.000901876
Heightened Def Con from 0.0009025 to 0.000902501
Heightened Def Con from 0.000903126 to 0.000903126
Heightened Def Con from 0.000903152 to 0.000903164
Heightened Def Con from 0.00090375 to 0.000903751
Heightened Def Con from 0.000905 to 0.000905001
Heightened Def Con from 0.000906251 to 0.000906251
Heightened Def Con from 0.000906276 to 0.000906277
Heightened Def Con from 0.000906875 to 0.000906876
Heightened Def Con from 0.0009075 to 0.000907501
Heightened Def Con from 0.00090875 to 0.000908751
Heightened Def Con from 0.000909376 to 0.000909376
Heightened Def Con from 0.000910625 to 0.000910626
Heightened Def Con from 0.000911875 to 0.000911876
Heightened Def Con from 0.000913125 to 0.000913126
Heightened Def Con from 0.000916876 to 0.000916876
Heightened Def Con from 0.000916901 to 0.000916902
Heightened Def Con from 0.000917501 to 0.000917501
Heightened Def Con from 0.000917526 to 0.000917527
Heightened Def Con from 0.000918125 to 0.000918126
Heightened Def Con from 0.000919375 to 0.000919376
Heightened Def Con from 0.000919402 to 0.000919414
Heightened Def Con from 0.00092 to 0.000920001
Heightened Def Con from 0.000920027 to 0.000920039
Heightened Def Con from 0.000921251 to 0.000921251
Heightened Def Con from 0.000921276 to 0.000921277
Heightened Def Con from 0.000921876 to 0.000921876
Heightened Def Con from 0.000921901 to 0.000921902
Heightened Def Con from 0.0009225 to 0.000922501
Heightened Def Con from 0.000922527 to 0.000922539
Heightened Def Con from 0.000923751 to 0.000923751
Heightened Def Con from 0.000923776 to 0.000923777
Heightened Def Con from 0.000924402 to 0.000924414
Heightened Def Con from 0.00092625 to 0.000926251
Heightened Def Con from 0.000926875 to 0.000926876
Heightened Def Con from 0.000928125 to 0.000928126
Heightened Def Con from 0.000929376 to 0.000929376
Heightened Def Con from 0.000930625 to 0.000930626
Heightened Def Con from 0.000930652 to 0.000930664
Heightened Def Con from 0.000931875 to 0.000931876
Heightened Def Con from 0.0009325 to 0.000932501
Heightened Def Con from 0.000933126 to 0.000933126
Heightened Def Con from 0.000933151 to 0.000933152
Heightened Def Con from 0.000935 to 0.000935001
Heightened Def Con from 0.000935625 to 0.000935626
Heightened Def Con from 0.000936875 to 0.000936876
Heightened Def Con from 0.0009375 to 0.000937501
Heightened Def Con from 0.000938125 to 0.000938126
Heightened Def Con from 0.000938152 to 0.000938164
Heightened Def Con from 0.00093875 to 0.000938751
Heightened Def Con from 0.000939376 to 0.000939376
Heightened Def Con from 0.00094 to 0.000940001
Heightened Def Con from 0.000941875 to 0.000941876
Heightened Def Con from 0.000943125 to 0.000943126
Heightened Def Con from 0.000943751 to 0.000943751
Heightened Def Con from 0.000944375 to 0.000944376
Heightened Def Con from 0.000945 to 0.000945001
Heightened Def Con from 0.00094625 to 0.000946251
Heightened Def Con from 0.000946277 to 0.000946289
Heightened Def Con from 0.000946875 to 0.000946876
Heightened Def Con from 0.000947501 to 0.000947501
Heightened Def Con from 0.000947526 to 0.000947527
Heightened Def Con from 0.000948126 to 0.000948126
Heightened Def Con from 0.000948151 to 0.000948152
Heightened Def Con from 0.00094875 to 0.000948751
Heightened Def Con from 0.000949376 to 0.000949376
Heightened Def Con from 0.000949401 to 0.000949402
Heightened Def Con from 0.000950001 to 0.000950001
Heightened Def Con from 0.000950026 to 0.000950027
Heightened Def Con from 0.000950626 to 0.000950626
Heightened Def Con from 0.000950651 to 0.000950652
Heightened Def Con from 0.000951875 to 0.000951876
Heightened Def Con from 0.000952501 to 0.000952501
Heightened Def Con from 0.000952526 to 0.000952527
Heightened Def Con from 0.000953125 to 0.000953126
Heightened Def Con from 0.00095375 to 0.000953751
Heightened Def Con from 0.000954375 to 0.000954376
Heightened Def Con from 0.000955001 to 0.000955001
Heightened Def Con from 0.000955625 to 0.000955626
Heightened Def Con from 0.000956251 to 0.000956251
Heightened Def Con from 0.000956276 to 0.000956277
Heightened Def Con from 0.000956875 to 0.000956876
Heightened Def Con from 0.000957501 to 0.000957501
Heightened Def Con from 0.000957526 to 0.000957527
Heightened Def Con from 0.000958125 to 0.000958126
Heightened Def Con from 0.000958751 to 0.000958751
Heightened Def Con from 0.000959375 to 0.000959376
Heightened Def Con from 0.000960001 to 0.000960001
Heightened Def Con from 0.000960026 to 0.000960027
Heightened Def Con from 0.000960625 to 0.000960626
Heightened Def Con from 0.00096125 to 0.000961251
Heightened Def Con from 0.0009625 to 0.000962501
Heightened Def Con from 0.000963125 to 0.000963126
Heightened Def Con from 0.00096375 to 0.000963751
Heightened Def Con from 0.000964376 to 0.000964376
Heightened Def Con from 0.000964402 to 0.000964402
Heightened Def Con from 0.000965 to 0.000965001
Heightened Def Con from 0.000965625 to 0.000965626
Heightened Def Con from 0.000966251 to 0.000966251
Heightened Def Con from 0.000966875 to 0.000966876
Heightened Def Con from 0.000967501 to 0.000967501
Heightened Def Con from 0.000968126 to 0.000968126
Heightened Def Con from 0.000968151 to 0.000968152
Heightened Def Con from 0.000968751 to 0.000968751
Heightened Def Con from 0.000968777 to 0.000968789
Heightened Def Con from 0.000969376 to 0.000969376
Heightened Def Con from 0.000969401 to 0.000969402
Heightened Def Con from 0.00097 to 0.000970001
Heightened Def Con from 0.000970626 to 0.000970626
Heightened Def Con from 0.00097125 to 0.000971251
Heightened Def Con from 0.000971276 to 0.000971277
Heightened Def Con from 0.000971875 to 0.000971876
Heightened Def Con from 0.000973126 to 0.000973126
Heightened Def Con from 0.000974375 to 0.000974376
Heightened Def Con from 0.000975001 to 0.000975001
Heightened Def Con from 0.000975625 to 0.000975626
Heightened Def Con from 0.000976251 to 0.000976251
Heightened Def Con from 0.000976876 to 0.000976876
Heightened Def Con from 0.000976901 to 0.000976902
Heightened Def Con from 0.0009775 to 0.000977501
Heightened Def Con from 0.000978125 to 0.000978126
Heightened Def Con from 0.00097875 to 0.000978751
Heightened Def Con from 0.000978777 to 0.000978789
Heightened Def Con from 0.000980625 to 0.000980626
Heightened Def Con from 0.00098125 to 0.000981251
Heightened Def Con from 0.000983126 to 0.000983126
Heightened Def Con from 0.000983151 to 0.000983152
[...]
Heightened Def Con from 0.00716253 to 0.00716253
Heightened Def Con from 0.00716313 to 0.00716313
Heightened Def Con from 0.00716315 to 0.00716315
Heightened Def Con from 0.00716375 to 0.00716375
Heightened Def Con from 0.00716378 to 0.00716378
Heightened Def Con from 0.00716438 to 0.00716438
Heightened Def Con from 0.0071644 to 0.0071644
Heightened Def Con from 0.007165 to 0.007165
Heightened Def Con from 0.00716503 to 0.00716503
Heightened Def Con from 0.00716563 to 0.00716563
Heightened Def Con from 0.00716565 to 0.00716565
Heightened Def Con from 0.00716625 to 0.00716625
Heightened Def Con from 0.00716628 to 0.00716628
Heightened Def Con from 0.00716688 to 0.00716688
Heightened Def Con from 0.0071669 to 0.0071669
Heightened Def Con from 0.0071675 to 0.0071675
Heightened Def Con from 0.00716813 to 0.00716813
Heightened Def Con from 0.00716875 to 0.00716875
Heightened Def Con from 0.00716938 to 0.00716938
Heightened Def Con from 0.00717 to 0.00717
Heightened Def Con from 0.00717063 to 0.00717063
Heightened Def Con from 0.00717065 to 0.00717065
Heightened Def Con from 0.00717125 to 0.00717125
Heightened Def Con from 0.00717128 to 0.00717128
Heightened Def Con from 0.00717188 to 0.00717188
Heightened Def Con from 0.0071719 to 0.0071719
Heightened Def Con from 0.0071725 to 0.0071725
Heightened Def Con from 0.00717313 to 0.00717313
Heightened Def Con from 0.00717315 to 0.00717315
Heightened Def Con from 0.00717378 to 0.00717378
Heightened Def Con from 0.007175 to 0.007175
Heightened Def Con from 0.00717565 to 0.00717565
Heightened Def Con from 0.00717625 to 0.00717625
Heightened Def Con from 0.0071769 to 0.0071769
Heightened Def Con from 0.0071775 to 0.0071775
Heightened Def Con from 0.00717875 to 0.00717875
Heightened Def Con from 0.00717938 to 0.00717938
Heightened Def Con from 0.00718 to 0.00718
Heightened Def Con from 0.00718003 to 0.00718003
Heightened Def Con from 0.00718063 to 0.00718063
Heightened Def Con from 0.00718128 to 0.00718128
Heightened Def Con from 0.00718188 to 0.00718188
Heightened Def Con from 0.0071819 to 0.0071819
Heightened Def Con from 0.0071825 to 0.0071825
Heightened Def Con from 0.00718253 to 0.00718253
Heightened Def Con from 0.00718313 to 0.00718313
Heightened Def Con from 0.00718315 to 0.00718315
Heightened Def Con from 0.00718375 to 0.00718375
Heightened Def Con from 0.00718438 to 0.00718438
Heightened Def Con from 0.007185 to 0.007185
Heightened Def Con from 0.00718563 to 0.00718563
Heightened Def Con from 0.00718565 to 0.00718565
Heightened Def Con from 0.00718625 to 0.00718625
Heightened Def Con from 0.00718688 to 0.00718688
Heightened Def Con from 0.0071869 to 0.0071869
Heightened Def Con from 0.0071875 to 0.0071875
Heightened Def Con from 0.00718813 to 0.00718813
Heightened Def Con from 0.00718815 to 0.00718815
Heightened Def Con from 0.00718875 to 0.00718875
Heightened Def Con from 0.00718938 to 0.00718938
Heightened Def Con from 0.00719 to 0.00719
Heightened Def Con from 0.00719063 to 0.00719063
Heightened Def Con from 0.00719125 to 0.00719125
Heightened Def Con from 0.0071919 to 0.0071919
Heightened Def Con from 0.00719253 to 0.00719253
Heightened Def Con from 0.00719313 to 0.00719313
Heightened Def Con from 0.00719378 to 0.00719378
Heightened Def Con from 0.00719438 to 0.00719438
Heightened Def Con from 0.007195 to 0.007195
Heightened Def Con from 0.00719503 to 0.00719503
Heightened Def Con from 0.00719563 to 0.00719563
Heightened Def Con from 0.00719625 to 0.00719625
Heightened Def Con from 0.00719628 to 0.00719628
Heightened Def Con from 0.00719688 to 0.00719688
Heightened Def Con from 0.0071969 to 0.0071969
Heightened Def Con from 0.00719813 to 0.00719813
Heightened Def Con from 0.00719878 to 0.00719878
Heightened Def Con from 0.00719938 to 0.00719938
Heightened Def Con from 0.0072 to 0.0072
Heightened Def Con from 0.00720003 to 0.00720003
Heightened Def Con from 0.00720063 to 0.00720063
Heightened Def Con from 0.00720125 to 0.00720125
Heightened Def Con from 0.00720128 to 0.00720128
Heightened Def Con from 0.00720188 to 0.00720188
Heightened Def Con from 0.0072019 to 0.0072019
Heightened Def Con from 0.0072025 to 0.0072025
Heightened Def Con from 0.00720253 to 0.00720253
Heightened Def Con from 0.00720313 to 0.00720313
Heightened Def Con from 0.00720315 to 0.00720315
Heightened Def Con from 0.00720375 to 0.00720375
Heightened Def Con from 0.00720438 to 0.00720438
Heightened Def Con from 0.0072044 to 0.0072044
Heightened Def Con from 0.007205 to 0.007205
Heightened Def Con from 0.00720563 to 0.00720563
Heightened Def Con from 0.00720565 to 0.00720565
Heightened Def Con from 0.00720625 to 0.00720625
Heightened Def Con from 0.00720688 to 0.00720688
Heightened Def Con from 0.0072075 to 0.0072075
Heightened Def Con from 0.00720753 to 0.00720753
Heightened Def Con from 0.00720813 to 0.00720813
Heightened Def Con from 0.00720815 to 0.00720815
Heightened Def Con from 0.00720875 to 0.00720875
Heightened Def Con from 0.00720878 to 0.00720878
Heightened Def Con from 0.00720938 to 0.00720938
Heightened Def Con from 0.0072094 to 0.0072094
Heightened Def Con from 0.00721 to 0.00721
Heightened Def Con from 0.00721063 to 0.00721063
Heightened Def Con from 0.00721065 to 0.00721065
Heightened Def Con from 0.00721125 to 0.00721125
Heightened Def Con from 0.00721188 to 0.00721188
Heightened Def Con from 0.0072125 to 0.0072125
Heightened Def Con from 0.00721313 to 0.00721313
Heightened Def Con from 0.00721375 to 0.00721375
Heightened Def Con from 0.00721438 to 0.00721438
Heightened Def Con from 0.007215 to 0.007215
Heightened Def Con from 0.00721563 to 0.00721563
Heightened Def Con from 0.00721625 to 0.00721625
Heightened Def Con from 0.00721688 to 0.00721688
Heightened Def Con from 0.0072175 to 0.0072175
Heightened Def Con from 0.00721813 to 0.00721813
Heightened Def Con from 0.00721875 to 0.00721875
Heightened Def Con from 0.00721938 to 0.00721938
Heightened Def Con from 0.00722 to 0.00722
Heightened Def Con from 0.00722063 to 0.00722063
Heightened Def Con from 0.00722125 to 0.00722125
Heightened Def Con from 0.00722128 to 0.00722128
Heightened Def Con from 0.00722188 to 0.00722188
Heightened Def Con from 0.00722253 to 0.00722253
Heightened Def Con from 0.00722313 to 0.00722313
Heightened Def Con from 0.00722378 to 0.00722378
Heightened Def Con from 0.00722438 to 0.00722438
Heightened Def Con from 0.0072244 to 0.0072244
Heightened Def Con from 0.00722563 to 0.00722563
Heightened Def Con from 0.00722565 to 0.00722565
Heightened Def Con from 0.00722625 to 0.00722625
Heightened Def Con from 0.00722628 to 0.00722628
Heightened Def Con from 0.00722688 to 0.00722688
Heightened Def Con from 0.0072275 to 0.0072275
Heightened Def Con from 0.00722753 to 0.00722753
Heightened Def Con from 0.00722813 to 0.00722813
Heightened Def Con from 0.00722815 to 0.00722815
Heightened Def Con from 0.00722938 to 0.00722938
Heightened Def Con from 0.0072294 to 0.0072294
Heightened Def Con from 0.00723063 to 0.00723063
Heightened Def Con from 0.00723065 to 0.00723065
Heightened Def Con from 0.00723188 to 0.00723188
Heightened Def Con from 0.0072325 to 0.0072325
Heightened Def Con from 0.00723315 to 0.00723315
Heightened Def Con from 0.00723375 to 0.00723375
Heightened Def Con from 0.007235 to 0.007235
Heightened Def Con from 0.00723503 to 0.00723503
Heightened Def Con from 0.00723563 to 0.00723563
Heightened Def Con from 0.00723565 to 0.00723565
Heightened Def Con from 0.00723625 to 0.00723625
Heightened Def Con from 0.00723628 to 0.00723628
Heightened Def Con from 0.00723688 to 0.00723688
Heightened Def Con from 0.0072369 to 0.0072369
Heightened Def Con from 0.0072375 to 0.0072375
Heightened Def Con from 0.00723815 to 0.00723815
Heightened Def Con from 0.00723875 to 0.00723875
Heightened Def Con from 0.00723878 to 0.00723878
Heightened Def Con from 0.0072394 to 0.0072394
Heightened Def Con from 0.00724 to 0.00724
Heightened Def Con from 0.00724003 to 0.00724003
Heightened Def Con from 0.00724063 to 0.00724063
Heightened Def Con from 0.00724065 to 0.00724065
Heightened Def Con from 0.00724125 to 0.00724125
Heightened Def Con from 0.00724188 to 0.00724188
Heightened Def Con from 0.0072419 to 0.0072419
Heightened Def Con from 0.0072425 to 0.0072425
Heightened Def Con from 0.00724253 to 0.00724253
Heightened Def Con from 0.00724313 to 0.00724313
Heightened Def Con from 0.00724315 to 0.00724315
Heightened Def Con from 0.00724375 to 0.00724375
Heightened Def Con from 0.00724438 to 0.00724438
Heightened Def Con from 0.0072444 to 0.0072444
Heightened Def Con from 0.007245 to 0.007245
Heightened Def Con from 0.00724563 to 0.00724563
Heightened Def Con from 0.00724625 to 0.00724625
Heightened Def Con from 0.00724688 to 0.00724688
Heightened Def Con from 0.0072469 to 0.0072469
Heightened Def Con from 0.0072475 to 0.0072475
Heightened Def Con from 0.00724813 to 0.00724813
Heightened Def Con from 0.00724815 to 0.00724815
Heightened Def Con from 0.00724878 to 0.00724878
Heightened Def Con from 0.00725 to 0.00725
Heightened Def Con from 0.00725003 to 0.00725003
Heightened Def Con from 0.00725063 to 0.00725063
Heightened Def Con from 0.00725065 to 0.00725065
Heightened Def Con from 0.00725188 to 0.00725188
Heightened Def Con from 0.0072519 to 0.0072519
Heightened Def Con from 0.0072525 to 0.0072525
Heightened Def Con from 0.00725375 to 0.00725375
Heightened Def Con from 0.00725378 to 0.00725378
Heightened Def Con from 0.00725438 to 0.00725438
Heightened Def Con from 0.0072544 to 0.0072544
Heightened Def Con from 0.007255 to 0.007255
Heightened Def Con from 0.00725503 to 0.00725503
Heightened Def Con from 0.00725563 to 0.00725563
Heightened Def Con from 0.00725565 to 0.00725565
Heightened Def Con from 0.00725625 to 0.00725625
Heightened Def Con from 0.0072569 to 0.0072569
Heightened Def Con from 0.0072575 to 0.0072575
Heightened Def Con from 0.00725878 to 0.00725878
Heightened Def Con from 0.00725938 to 0.00725938
Heightened Def Con from 0.00726 to 0.00726
Heightened Def Con from 0.00726003 to 0.00726003
Heightened Def Con from 0.00726063 to 0.00726063
Heightened Def Con from 0.00726065 to 0.00726065
Heightened Def Con from 0.00726125 to 0.00726125
Heightened Def Con from 0.00726128 to 0.00726128
Heightened Def Con from 0.00726188 to 0.00726188
Heightened Def Con from 0.0072619 to 0.0072619
Heightened Def Con from 0.00726253 to 0.00726253
Heightened Def Con from 0.00726313 to 0.00726313
Heightened Def Con from 0.00726315 to 0.00726315
Heightened Def Con from 0.00726375 to 0.00726375
Heightened Def Con from 0.00726438 to 0.00726438
Heightened Def Con from 0.007265 to 0.007265
Heightened Def Con from 0.00726503 to 0.00726503
Heightened Def Con from 0.00726565 to 0.00726565
Heightened Def Con from 0.00726625 to 0.00726625
Heightened Def Con from 0.00726628 to 0.00726628
Heightened Def Con from 0.00726688 to 0.00726688
Heightened Def Con from 0.0072669 to 0.0072669
Heightened Def Con from 0.0072675 to 0.0072675
Heightened Def Con from 0.00726813 to 0.00726813
Heightened Def Con from 0.00726875 to 0.00726875
Heightened Def Con from 0.00726878 to 0.00726878
Heightened Def Con from 0.00726938 to 0.00726938
Heightened Def Con from 0.00727 to 0.00727
Heightened Def Con from 0.00727063 to 0.00727063
Heightened Def Con from 0.00727125 to 0.00727125
Heightened Def Con from 0.00727188 to 0.00727188
Heightened Def Con from 0.0072725 to 0.0072725
Heightened Def Con from 0.00727253 to 0.00727253
Heightened Def Con from 0.00727313 to 0.00727313
Heightened Def Con from 0.00727375 to 0.00727375
Heightened Def Con from 0.00727438 to 0.00727438
Heightened Def Con from 0.0072744 to 0.0072744
Heightened Def Con from 0.007275 to 0.007275
Heightened Def Con from 0.00727503 to 0.00727503
Heightened Def Con from 0.00727563 to 0.00727563
Heightened Def Con from 0.00727625 to 0.00727625
Heightened Def Con from 0.00727628 to 0.00727628
Heightened Def Con from 0.00727688 to 0.00727688
Heightened Def Con from 0.0072769 to 0.0072769
Heightened Def Con from 0.0072775 to 0.0072775
Heightened Def Con from 0.00727753 to 0.00727753
Heightened Def Con from 0.00727815 to 0.00727815
Heightened Def Con from 0.00727875 to 0.00727875
Heightened Def Con from 0.00727878 to 0.00727878
Heightened Def Con from 0.00727938 to 0.00727938
Heightened Def Con from 0.0072794 to 0.0072794
Heightened Def Con from 0.00728 to 0.00728
Heightened Def Con from 0.00728063 to 0.00728063
Heightened Def Con from 0.00728065 to 0.00728065
Heightened Def Con from 0.00728125 to 0.00728125
Heightened Def Con from 0.00728188 to 0.00728188
Heightened Def Con from 0.0072819 to 0.0072819
Heightened Def Con from 0.0072825 to 0.0072825
Heightened Def Con from 0.00728253 to 0.00728253
Heightened Def Con from 0.00728313 to 0.00728313
Heightened Def Con from 0.00728315 to 0.00728315
Heightened Def Con from 0.00728375 to 0.00728375
Heightened Def Con from 0.00728438 to 0.00728438
Heightened Def Con from 0.007285 to 0.007285
Heightened Def Con from 0.00728503 to 0.00728503
Heightened Def Con from 0.00728563 to 0.00728563
Heightened Def Con from 0.00728625 to 0.00728625
Heightened Def Con from 0.00728628 to 0.00728628
Heightened Def Con from 0.00728688 to 0.00728688
Heightened Def Con from 0.0072869 to 0.0072869
Heightened Def Con from 0.0072875 to 0.0072875
Heightened Def Con from 0.00728753 to 0.00728753
Heightened Def Con from 0.00728813 to 0.00728813
Heightened Def Con from 0.00728875 to 0.00728875
Heightened Def Con from 0.00728938 to 0.00728938
Heightened Def Con from 0.0072894 to 0.0072894
Heightened Def Con from 0.00729 to 0.00729
Heightened Def Con from 0.00729063 to 0.00729063
Heightened Def Con from 0.00729065 to 0.00729065
Heightened Def Con from 0.00729125 to 0.00729125
Heightened Def Con from 0.00729128 to 0.00729128
Heightened Def Con from 0.00729188 to 0.00729188
Heightened Def Con from 0.0072925 to 0.0072925
Heightened Def Con from 0.00729253 to 0.00729253
Heightened Def Con from 0.00729313 to 0.00729313
Heightened Def Con from 0.00729375 to 0.00729375
Heightened Def Con from 0.00729438 to 0.00729438
Heightened Def Con from 0.007295 to 0.007295
Heightened Def Con from 0.00729563 to 0.00729563
Heightened Def Con from 0.00729565 to 0.00729565
Heightened Def Con from 0.00729625 to 0.00729625
Heightened Def Con from 0.00729688 to 0.00729688
Heightened Def Con from 0.0072975 to 0.0072975
Heightened Def Con from 0.00729753 to 0.00729753
Heightened Def Con from 0.00729813 to 0.00729813
Heightened Def Con from 0.00729815 to 0.00729815
Heightened Def Con from 0.00729875 to 0.00729875
Heightened Def Con from 0.00729938 to 0.00729938
Heightened Def Con from 0.0072994 to 0.0072994
Heightened Def Con from 0.00730003 to 0.00730003
Heightened Def Con from 0.00730063 to 0.00730063
Heightened Def Con from 0.00730128 to 0.00730128
Heightened Def Con from 0.00730188 to 0.00730188
Heightened Def Con from 0.0073019 to 0.0073019
Heightened Def Con from 0.00730253 to 0.00730253
Heightened Def Con from 0.00730375 to 0.00730375
Heightened Def Con from 0.00730378 to 0.00730378
Heightened Def Con from 0.00730438 to 0.00730438
Heightened Def Con from 0.0073044 to 0.0073044
Heightened Def Con from 0.007305 to 0.007305
Heightened Def Con from 0.00730563 to 0.00730563
Heightened Def Con from 0.00730625 to 0.00730625
Heightened Def Con from 0.00730688 to 0.00730688
Heightened Def Con from 0.0073069 to 0.0073069
Heightened Def Con from 0.0073075 to 0.0073075
Heightened Def Con from 0.00730753 to 0.00730753
Heightened Def Con from 0.00730813 to 0.00730813
Heightened Def Con from 0.00730938 to 0.00730938
Heightened Def Con from 0.0073094 to 0.0073094
Heightened Def Con from 0.00731 to 0.00731
Heightened Def Con from 0.00731063 to 0.00731063
Heightened Def Con from 0.00731065 to 0.00731065
Heightened Def Con from 0.00731128 to 0.00731128
Heightened Def Con from 0.0073119 to 0.0073119
Heightened Def Con from 0.0073125 to 0.0073125
Heightened Def Con from 0.00731313 to 0.00731313
Heightened Def Con from 0.00731315 to 0.00731315
Heightened Def Con from 0.00731378 to 0.00731378
Heightened Def Con from 0.00731438 to 0.00731438
Heightened Def Con from 0.007315 to 0.007315
Heightened Def Con from 0.00731503 to 0.00731503
Heightened Def Con from 0.00731563 to 0.00731563
Heightened Def Con from 0.00731565 to 0.00731565
Heightened Def Con from 0.00731625 to 0.00731625
Heightened Def Con from 0.00731688 to 0.00731688
Heightened Def Con from 0.00731813 to 0.00731813
Heightened Def Con from 0.00731815 to 0.00731815
Heightened Def Con from 0.00731875 to 0.00731875
Heightened Def Con from 0.00731878 to 0.00731878
Heightened Def Con from 0.00731938 to 0.00731938
Heightened Def Con from 0.0073194 to 0.0073194
Heightened Def Con from 0.00732 to 0.00732
Heightened Def Con from 0.00732063 to 0.00732063
Heightened Def Con from 0.00732065 to 0.00732065
Heightened Def Con from 0.00732125 to 0.00732125
Heightened Def Con from 0.00732188 to 0.00732188
Heightened Def Con from 0.0073219 to 0.0073219
Heightened Def Con from 0.0073225 to 0.0073225
Heightened Def Con from 0.00732253 to 0.00732253
Heightened Def Con from 0.00732313 to 0.00732313
Heightened Def Con from 0.00732375 to 0.00732375
Heightened Def Con from 0.00732438 to 0.00732438
Heightened Def Con from 0.0073244 to 0.0073244
Heightened Def Con from 0.007325 to 0.007325
Heightened Def Con from 0.00732563 to 0.00732563
Heightened Def Con from 0.00732565 to 0.00732565
Heightened Def Con from 0.00732625 to 0.00732625
Heightened Def Con from 0.00732628 to 0.00732628
Heightened Def Con from 0.00732688 to 0.00732688
Heightened Def Con from 0.0073275 to 0.0073275
Heightened Def Con from 0.00732813 to 0.00732813
Heightened Def Con from 0.00732815 to 0.00732815
Heightened Def Con from 0.00732938 to 0.00732938
Heightened Def Con from 0.00733 to 0.00733
Heightened Def Con from 0.00733063 to 0.00733063
Heightened Def Con from 0.00733125 to 0.00733125
Heightened Def Con from 0.00733128 to 0.00733128
Heightened Def Con from 0.00733188 to 0.00733188
Heightened Def Con from 0.0073325 to 0.0073325
Heightened Def Con from 0.00733253 to 0.00733253
Heightened Def Con from 0.00733315 to 0.00733315
Heightened Def Con from 0.00733375 to 0.00733375
Heightened Def Con from 0.0073344 to 0.0073344
Heightened Def Con from 0.007335 to 0.007335
Heightened Def Con from 0.00733503 to 0.00733503
Heightened Def Con from 0.00733565 to 0.00733565
Heightened Def Con from 0.00733688 to 0.00733688
Heightened Def Con from 0.0073369 to 0.0073369
Heightened Def Con from 0.0073375 to 0.0073375
Heightened Def Con from 0.00733813 to 0.00733813
Heightened Def Con from 0.00733875 to 0.00733875
Heightened Def Con from 0.00733938 to 0.00733938
Heightened Def Con from 0.0073394 to 0.0073394
Heightened Def Con from 0.00734 to 0.00734
Heightened Def Con from 0.00734063 to 0.00734063
Heightened Def Con from 0.00734065 to 0.00734065
Heightened Def Con from 0.00734125 to 0.00734125
Heightened Def Con from 0.00734128 to 0.00734128
Heightened Def Con from 0.00734188 to 0.00734188
Heightened Def Con from 0.0073419 to 0.0073419
Heightened Def Con from 0.00734313 to 0.00734313
Heightened Def Con from 0.00734375 to 0.00734375
Heightened Def Con from 0.00734438 to 0.00734438
Heightened Def Con from 0.0073444 to 0.0073444
Heightened Def Con from 0.007345 to 0.007345
Heightened Def Con from 0.00734503 to 0.00734503
Heightened Def Con from 0.00734625 to 0.00734625
Heightened Def Con from 0.00734688 to 0.00734688
Heightened Def Con from 0.0073469 to 0.0073469
Heightened Def Con from 0.0073475 to 0.0073475
Heightened Def Con from 0.00734813 to 0.00734813
Heightened Def Con from 0.00734875 to 0.00734875
Heightened Def Con from 0.00734878 to 0.00734878
Heightened Def Con from 0.00734938 to 0.00734938
Heightened Def Con from 0.0073494 to 0.0073494
Heightened Def Con from 0.00735 to 0.00735
Heightened Def Con from 0.00735063 to 0.00735063
Heightened Def Con from 0.00735065 to 0.00735065
Heightened Def Con from 0.00735125 to 0.00735125
Heightened Def Con from 0.0073519 to 0.0073519
Heightened Def Con from 0.0073522 to 0.0073522
Total elapsed time: 106.086 seconds.

