LTspice 24.0.12 for Windows
Circuit: * D:\gitHub\Fuente-Conmutada\Simulaciones\LTSpice LMR64010\TI_LMR64010.asc
Start Time: Thu May 16 14:09:40 2024
solver = Normal
Maximum thread count: 16
tnom = 27
temp = 27
method = trap
trtol = 1
WARNING: Less than two connections to node u1:ref5v.  This node is used by v:u1:1.
Direct Newton iteration for .op point succeeded.
Ignoring empty pin current: Ix(u1:vin)
Ignoring empty pin current: Ix(u1:fb)
Ignoring empty pin current: Ix(u1:vin)
Ignoring empty pin current: Ix(u1:fb)
Heightened Def Con from 2.97103e-05 to 2.97114e-05
Total elapsed time: 13.764 seconds.

