Circuit: * D:\gitHub\Fuente-Conmutada\Simulaciones\LTSpice LMR64010\TI_LMR64010.asc

WARNING: Less than two connections to node u1:ref5v.  This node is used by v:u1:1.
Direct Newton iteration for .op point succeeded.
Ignoring empty pin current: Ix(u1:vin)
Ignoring empty pin current: Ix(u1:fb)
Ignoring empty pin current: Ix(u1:vin)
Ignoring empty pin current: Ix(u1:fb)

Date: Sat Apr 13 16:06:30 2024
Total elapsed time: 7.938 seconds.

tnom = 27
temp = 27
method = trap
totiter = 1692588
traniter = 1692545
tranpoints = 543448
accept = 415702
rejected = 127746
matrix size = 77
fillins = 44
solver = Normal
Avg thread counts: 1.0/1.0/1.0/1.0
Matrix Compiler1: 3.30 KB object code size  1.0/0.5/[0.4]
Matrix Compiler2: 5.24 KB object code size  0.5/0.6/[0.4]

