Circuit: * D:\gitHub\Fuente-Conmutada\Simulaciones\LTSpice LMR64010\TI_LMR64010_SEPICb.asc

WARNING: Less than two connections to node u1:ref5v.  This node is used by v:u1:1.
Direct Newton iteration for .op point succeeded.
Ignoring empty pin current: Ix(u1:vin)
Ignoring empty pin current: Ix(u1:fb)
Ignoring empty pin current: Ix(u1:vin)
Ignoring empty pin current: Ix(u1:fb)
Heightened Def Con from 0.000584332 to 0.000584332

Date: Tue Apr 16 19:47:45 2024
Total elapsed time: 10.456 seconds.

tnom = 27
temp = 27
method = trap
totiter = 1970706
traniter = 1970685
tranpoints = 638685
accept = 490816
rejected = 147870
matrix size = 80
fillins = 40
solver = Normal
Avg thread counts: 1.0/1.0/1.0/1.0
Matrix Compiler1: 3.59 KB object code size  0.6/0.5/[0.4]
Matrix Compiler2: 5.36 KB object code size  0.6/0.6/[0.3]

