Circuit: * D:\JOSE\Facultad\Taller\fuenteSwitching\simulacion\TI_LMR64010_SEPIC.asc

Questionable use of curly braces in "b§e_abmgate yint 0 v={if(v(a)>{{vthresh}},{{vdd}},{{vss}})}"
    Error: undefined symbol in: "if([v](a)>((vthresh)),((vdd)),((vss)))"
WARNING: Less than two connections to node U1:REF5V.  This node is used by V:U1:1.
Direct Newton iteration for .op point succeeded.
Ignoring empty pin current: Ix(u1:vin)
Ignoring empty pin current: Ix(u1:fb)
Ignoring empty pin current: Ix(u1:vin)
Ignoring empty pin current: Ix(u1:fb)

Date: Wed Apr 10 15:42:48 2024
Total elapsed time: 30.353 seconds.

tnom = 27
temp = 27
method = modified trap
totiter = 4429966
traniter = 4429957
tranpoints = 1454790
accept = 1113467
rejected = 341323
matrix size = 78
fillins = 43
solver = Normal
Matrix Compiler1: 3.29 KB object code size  0.7/0.4/[0.4]
Matrix Compiler2: 5.29 KB object code size  0.3/0.6/[0.2]

